131
Lattice="12.12 0.0 0.0 -6.06 10.496227893867395 0.0 0.0 0.0 40.0" Properties=species:S:1:pos:R:3:tags:I:1:forces:R:3 energy=-1205.669715945401 stress="0.0029898954592204145 3.1464143130050727e-06 7.090405802055154e-06 3.1464143130050727e-06 0.002991435759099377 -6.2340911812086965e-06 7.090405802055154e-06 -6.2340911812086965e-06 0.002499858200119161" pbc="T T F"
C       -0.00151371      -0.00464827      10.17288588        2      -0.00031031       0.00008111       0.00018926
Ti      -0.00400087       1.74562011      11.46658285        0      -0.00009560       0.00003789       0.00018395
Ti       1.51358557       0.86834795       8.88323418        0      -0.00003127      -0.00016632       0.00013165
O       -0.00166731       1.74118037       7.93947786        1       0.00007519      -0.00016178       0.00014913
O        1.51617621       0.87948504      12.39698346        3      -0.00013457      -0.00003651       0.00009831
C       -1.51749028       2.61981989      10.16813505        2      -0.00004638       0.00024620       0.00000093
Ti      -1.51831332       4.36691941      11.46730898        0      -0.00022013       0.00007917      -0.00016655
Ti      -0.00792814       3.49119753       8.86430720        0       0.00014281       0.00031479       0.00003564
O       -1.51974643       4.37145622       7.93893548        1      -0.00013235       0.00040039       0.00005563
O        0.00922442       3.50136102      12.38663949        3      -0.00012689      -0.00013066       0.00004528
C       -3.03204744       5.24463004      10.17164693        2      -0.00000696      -0.00010323      -0.00004565
Ti      -3.03324037       6.99186489      11.47295402        0       0.00001079      -0.00014213       0.00043859
Ti      -1.51864434       6.11993447       8.88300702        0      -0.00000010       0.00034588      -0.00037276
O       -3.03167651       6.99787943       7.94573670        1       0.00000469      -0.00053327       0.00065384
O       -1.50857975       6.11620637      12.39839057        3       0.00015853      -0.00000053      -0.00022159
C       -4.54958290       7.86623820      10.17708920        2      -0.00048595      -0.00007164       0.00029315
Ti      -4.54800796       9.61762365      11.47285608        0      -0.00013699       0.00010831       0.00050644
Ti      -3.03195527       8.74246339       8.88839532        0      -0.00004768       0.00005268      -0.00017524
O       -4.54340301       9.61516461       7.94638407        1      -0.00016089       0.00009668      -0.00007257
O       -3.03223314       8.74197505      12.40151546        3       0.00001434       0.00053205       0.00008109
C        3.02807963      -0.00141488      10.17714288        2      -0.00002047       0.00022665       0.00074643
Ti       3.02859915       1.75128727      11.46816872        0       0.00003750      -0.00046380       0.00003283
Ti       4.54228763       0.86835541       8.88225780        0      -0.00003075      -0.00006273       0.00001135
O        3.02740861       1.73598219       7.93545237        1      -0.00006139       0.00003330      -0.00024330
O        4.54140143       0.88028040      12.39760607        3       0.00004938      -0.00006507       0.00006598
C        1.51413720       2.61939066      10.15651041        2       0.00001171       0.00023433       0.00007153
Ti       1.49643251       4.35897655      11.38086805        0       0.00013502      -0.00029386      -0.00046369
Ti       3.02786077       3.49394309       8.85150013        0      -0.00009451      -0.00017241      -0.00039967
O        1.50719446       4.36614399       7.91803736        1      -0.00022201       0.00027008      -0.00033338
O        3.03007439       3.52778971      12.40042689        3      -0.00011238       0.00028881       0.00010911
C       -0.00196186       5.24509303      10.15669714        2       0.00036292      -0.00017246      -0.00013737
Ti       0.00234209       6.99046962      11.46715178        0       0.00003945       0.00024070      -0.00022278
Ti       1.51253328       6.11876310       8.85236453        0      -0.00034637       0.00019049       0.00024853
O       -0.00966889       6.99758391       7.93586790        1      -0.00002228       0.00011624       0.00006969
O        1.54249777       6.10166480      12.40025797        3       0.00002788      -0.00003048       0.00028376
C       -1.51460416       7.86637815      10.17734963        2       0.00038642      -0.00002791       0.00021306
Ti      -1.51677038       9.61840405      11.47301156        0       0.00008402       0.00005056       0.00032244
Ti      -0.00407240       8.74311877       8.88321746        0      -0.00039424       0.00011995      -0.00046536
O       -1.52087618       9.61463651       7.94592463        1       0.00018496       0.00012919      -0.00003636
O        0.00426719       8.73650380      12.39846939        3      -0.00004144       0.00014949      -0.00062663
C        6.05719398      -0.00475845      10.17185436        2       0.00024159       0.00002660       0.00013314
Ti       6.05990717       1.74638756      11.46474542        0      -0.00002613       0.00006073       0.00022980
Ti       7.57332814       0.87060099       8.88162358        0      -0.00036571       0.00001030       0.00065336
O        6.05752933       1.74063993       7.93776759        1      -0.00010766      -0.00015798       0.00014163
O        7.57040641       0.87079807      12.39656401        3      -0.00019129      -0.00010632      -0.00027813
C        4.54183415       2.61909866      10.15438439        2      -0.00009711       0.00020501       0.00010342
Ti       4.56124915       4.35886884      11.37753118        0      -0.00002874      -0.00028873      -0.00040664
Ti       6.06372212       3.49110287       8.86087660        0      -0.00025745       0.00030032       0.00010572
O        4.54777139       4.36627482       7.91670755        1       0.00005680       0.00032464      -0.00035479
O        6.04626507       3.50129105      12.38284723        3       0.00012780      -0.00017473       0.00004875
C        3.02792593       5.24392029      10.12723821        2      -0.00013385      -0.00006021       0.00034584
Ti       3.02857699       7.01250078      11.38098170        0      -0.00000551       0.00000011      -0.00022777
Ti       4.54336341       6.11885494       8.85127957        0       0.00011298       0.00016334       0.00020487
O        3.02758685       6.99970753       7.91794264        1      -0.00004307       0.00027977       0.00020858
O        4.51537165       6.10037875      12.40070038        3      -0.00011935      -0.00002783       0.00027542
C        1.51191194       7.86720415      10.15672009        2       0.00000331      -0.00022371      -0.00033212
Ti       1.51418374       9.61957379      11.46750792        0       0.00004511       0.00004692      -0.00015971
Ti       3.02780907       8.74927934       8.86438720        0      -0.00001996      -0.00030368       0.00010959
O        1.50948215       9.61840237       7.93904514        1      -0.00000478       0.00022806       0.00001344
O        3.02736188       8.72937042      12.38641931        3      -0.00005518      -0.00025218       0.00010983
C        9.08767656      -0.00386975      10.16827441        2      -0.00006803       0.00028045      -0.00009565
Ti       9.08725610       1.74569181      11.46386040        0      -0.00011564       0.00003335       0.00052391
Ti      10.60249226       0.87060837       8.88265795        0       0.00036616      -0.00000112       0.00043095
O        9.08839097       1.74471841       7.94292343        1      -0.00000761      -0.00000504      -0.00007664
O       10.60327245       0.87062749      12.39597520        3       0.00001891      -0.00004391      -0.00028720
C        7.57326138       2.61952424      10.16620842        2      -0.00008226       0.00026872      -0.00005036
Ti       7.57295439       4.36686248      11.46448320        0       0.00014446       0.00009747      -0.00006903
Ti       9.08796330       3.49394545       8.88144862        0      -0.00005738       0.00064201       0.00026765
O        7.57654350       4.37157262       7.93769679        1      -0.00004946       0.00038347       0.00008742
O        9.08645457       3.49676973      12.39625715        3      -0.00004593       0.00035402      -0.00029308
C        6.05795901       5.24522223      10.15418483        2      -0.00046021      -0.00012239      -0.00005603
Ti       6.05301481       6.98952984      11.46813314        0       0.00008723       0.00031027      -0.00025358
Ti       7.57433102       6.12007067       8.88197971        0      -0.00021635       0.00028667      -0.00041525
O        6.06551470       6.99825397       7.93533126        1      -0.00019955       0.00001485       0.00005528
O        7.56321579       6.11483601      12.39774511        3      -0.00016360      -0.00007849      -0.00021334
C        4.54386719       7.86716281      10.15653213        2      -0.00016594      -0.00030972      -0.00023478
Ti       4.54164330       9.61896754      11.46696941        0      -0.00015493       0.00006688      -0.00014053
Ti       6.05995007       8.74300656       8.88335647        0       0.00031164       0.00004651      -0.00042443
O        4.54646471       9.61886167       7.93952601        1      -0.00005163       0.00018416      -0.00004987
O        6.05140251       8.73532275      12.39758862        3      -0.00010744       0.00018589      -0.00054710
C        0.04646183       0.06644977      16.42320556       10       0.00002373      -0.00006745       0.00018089
C        1.25851975       0.76551206      16.44017975       10       0.00003265      -0.00019566       0.00009645
C       -1.16573509       2.16541549      16.42899479       10      -0.00008146      -0.00012303      -0.00021305
C        0.04548513       2.86459150      16.49125912       10      -0.00008728      -0.00015667       0.00009042
C       -2.37735335       4.26461069      16.42733580       10       0.00003788      -0.00011848       0.00010098
C       -1.16692282       4.96453535      16.49005458       10       0.00001102      -0.00003860       0.00006919
C       -3.58880276       6.36429049      16.42400856       10       0.00008735      -0.00001741       0.00021071
C       -2.37742568       7.06431399      16.44175411       10       0.00007848      -0.00005270       0.00004441
C       -4.80104784       8.46375188      16.42378608       10       0.00011734      -0.00002572       0.00012694
C       -3.58906500       9.16319486      16.41267300       10       0.00009946      -0.00015843      -0.00003042
C        2.47066960       0.06616770      16.42976040       10       0.00009863      -0.00021489       0.00019861
C        3.68278946       0.76510356      16.44692070       10       0.00003037      -0.00021332       0.00013695
C        1.25784819       2.16432770      16.49644637       10       0.00001375      -0.00012289       0.00037569
C        2.47037033       2.86225215      16.54549691       10       0.00012538      -0.00004731       0.00019436
C        0.04398627       4.26381791      16.53875564       10      -0.00000172      -0.00013159       0.00046110
C        1.25498837       4.96383997      16.60713015       10       0.00007189      -0.00005929      -0.00011505
C       -1.16673400       6.36437044      16.49419982       10      -0.00002780       0.00006344       0.00005963
C        0.04434242       7.06533514      16.54086345       10       0.00000858      -0.00006438       0.00011426
C       -2.37728945       8.46354230      16.43063972       10       0.00006530      -0.00000606      -0.00016912
C       -1.16560750       9.16322453      16.44657770       10       0.00002293      -0.00011845       0.00048423
C        4.89495360       0.06609328      16.43384585       10       0.00019901      -0.00016257      -0.00006598
C        6.10683997       0.76548466      16.42398509       10       0.00004273      -0.00013171      -0.00023237
C        3.68322197       2.16411591      16.49819451       10       0.00012046      -0.00021763       0.00017185
C        4.89610089       2.86396306      16.48900235       10       0.00014274      -0.00017843       0.00003528
C        2.46943646       4.26166581      16.61477964       10      -0.00010303      -0.00018111       0.00019519
C        3.68560304       4.96342219      16.61533588       10       0.00029023      -0.00002885       0.00011670
C        1.25617485       6.36574350      16.60248193       10      -0.00001912      -0.00001560       0.00015263
C        2.46980988       7.06747702      16.60438090       10       0.00008694       0.00003547       0.00001560
C        0.04581435       8.46463969      16.49685484       10       0.00004396       0.00002941      -0.00006679
C        1.25797267       9.16462080      16.49310958       10       0.00005086      -0.00000787      -0.00025912
C        7.31887398       0.06668682      16.43272944       10       0.00011982      -0.00008700       0.00018811
C        8.53075806       0.76602921      16.41011392       10       0.00006684      -0.00002067      -0.00039854
C        6.10762599       2.16499167      16.42862508       10       0.00027211      -0.00020584      -0.00006376
C        7.31935424       2.86510560      16.40437183       10       0.00015357      -0.00012150      -0.00006009
C        4.89810774       4.26329952      16.53651427       10       0.00000174      -0.00008318      -0.00012796
C        6.10878542       4.96457613      16.48272133       10       0.00013874      -0.00007519      -0.00005836
C        3.68505253       6.36723863      16.60996231       10       0.00001611      -0.00010642      -0.00040728
C        4.89718623       7.06577852      16.53772082       10       0.00014953       0.00000982       0.00014874
C        2.47040918       8.46623047      16.53711850       10      -0.00000102      -0.00003909      -0.00006725
C        3.68285802       9.16459848      16.48851293       10       0.00003526       0.00009887      -0.00027409
C        9.74261401       0.06687557      16.42838403       10      -0.00002794      -0.00001512      -0.00031987
C       10.95467135       0.76607420      16.41782779       10      -0.00002021      -0.00011041       0.00013815
C        8.53110748       2.16539075      16.38919091       10       0.00010740      -0.00018760      -0.00034959
C        9.74288302       2.86534192      16.40783331       10      -0.00002106      -0.00004269       0.00002007
C        7.31990762       4.26466854      16.42251608       10       0.00013020      -0.00015882      -0.00020643
C        8.53150513       4.96500435      16.41441231       10       0.00011074      -0.00002491       0.00008988
C        6.10831721       6.36474724      16.48821778       10       0.00016895      -0.00001925      -0.00025071
C        7.31970879       7.06457756      16.43624312       10       0.00021908       0.00001340      -0.00031151
C        4.89538062       8.46477188      16.49025718       10       0.00001540      -0.00007217      -0.00015841
C        6.10709358       9.16354890      16.43529881       10       0.00003683      -0.00007408       0.00001289
Na       3.03394442       5.23924988      13.94825989       20       0.00018874      -0.00030509      -0.00016144
