139
Lattice="12.12 0.0 0.0 -6.06 10.496227893867395 0.0 0.0 0.0 40.0" Properties=species:S:1:pos:R:3:tags:I:1:forces:R:3 stress="0.003329243937488638 3.726348676737605e-06 -8.872825809444273e-07 3.726348676737605e-06 0.0033292593341733177 4.058253174600896e-06 -8.872825809444273e-07 4.058253174600896e-06 0.00241335098841048" energy=-1232.963854559406 pbc="T T F"
C       -0.59363912       0.00614647       9.97722671        2      -0.00001986      -0.00023948       0.00037296
Ti      -0.59716134       1.75600969       8.69713276        0      -0.00015510       0.00037668      -0.00007135
Ti       0.92260787       0.85444642      11.19523252        0      -0.00021448      -0.00002889       0.00001550
O       -0.60191735       1.77028685      12.31119019        3      -0.00010335       0.00058324      -0.00020511
O        0.91525544       0.88505662       7.73333590        1       0.00000392      -0.00014693      -0.00012703
C       -2.10325482       2.62794777       9.99599022        2       0.00000329      -0.00004464      -0.00004620
Ti      -2.10786157       4.36690739       8.68176091        0      -0.00004435      -0.00024757      -0.00015795
Ti      -0.59421860       3.51019954      11.22613520        0       0.00018906      -0.00034782      -0.00011554
O       -2.10716102       4.38519880      12.29550491        3       0.00027854      -0.00013573       0.00023069
O       -0.59331122       3.50208884       7.74943329        1       0.00026232      -0.00002097       0.00006690
C       -3.62798846       5.25227999       9.97887580        2       0.00002240       0.00004909      -0.00007628
Ti      -3.62768768       6.99309594       8.65759599        0      -0.00019817       0.00002419      -0.00000532
Ti      -2.10722383       6.12354067      11.14017430        0       0.00036582      -0.00002782       0.00009637
O       -3.58867157       7.03355435      12.25360223        3      -0.00018266       0.00006801       0.00022214
O       -2.10381462       6.11463987       7.73021637        1       0.00008636       0.00006394       0.00012633
C       -5.13776025       7.86988523       9.95891029        2       0.00003912       0.00011317      -0.00001685
Ti      -5.14099697       9.62757870       8.65118057        0       0.00031867      -0.00020030      -0.00028652
Ti      -3.62089401       8.74435538      11.12166143        0      -0.00004859       0.00025708       0.00004437
O       -5.11140198       9.61382079      12.23630314        3      -0.00007382      -0.00000095      -0.00014874
O       -3.62631946       8.74739562       7.71407466        1      -0.00023487      -0.00023158       0.00041895
C        2.43111492       0.00754261       9.94331843        2      -0.00008771      -0.00042171      -0.00032374
Ti       2.43395211       1.75486038       8.66843997        0       0.00015994       0.00035443      -0.00025609
Ti       3.93142642       0.88372470      11.19154819        0      -0.00054823      -0.00024517       0.00028394
O        2.42053889       1.73950278      12.24658587        3      -0.00010589       0.00004227      -0.00008320
O        3.95734247       0.88877789       7.73020694        1       0.00002745      -0.00002405      -0.00003388
C        0.91728359       2.62612443       9.98135548        2       0.00011218      -0.00000618       0.00041116
Ti       0.92413708       4.37457933       8.69086731        0      -0.00007914      -0.00019843      -0.00014857
Ti       2.44233205       3.48924674      11.18660458        0      -0.00004037      -0.00031270      -0.00007868
O        0.95656378       4.35188769      12.31647045        3       0.00047071      -0.00004436       0.00008905
O        2.44157707       3.50990037       7.74417674        1      -0.00007401       0.00001943      -0.00017543
C       -0.58563834       5.24384990       9.97814192        2      -0.00004412       0.00040028       0.00044264
Ti      -0.58731841       6.99761076       8.65920075        0       0.00028429      -0.00004752      -0.00001107
Ti       0.91371114       6.11405259      11.20815483        0      -0.00011930      -0.00003307      -0.00029234
O       -0.59811071       6.98570140      12.22398941        3      -0.00020472       0.00024011       0.00018651
O        0.92998136       6.12191668       7.74466390        1      -0.00027163       0.00041655       0.00016866
C       -2.10603813       7.87161086       9.93711862        2      -0.00031695      -0.00010550      -0.00011826
Ti      -2.10504953       9.62927908       8.64402006        0      -0.00030026       0.00026528      -0.00018768
Ti      -0.61549801       8.74745246      11.16493054        0       0.00011106      -0.00023202       0.00013315
O       -2.12440592       9.63986374      12.20312817        3      -0.00015699       0.00000333      -0.00016996
O       -0.58102070       8.74784686       7.72683602        1      -0.00000657      -0.00018722       0.00017497
C        5.46720312       0.00340376       9.96600261        2       0.00004661      -0.00006600       0.00007703
Ti       5.47072871       1.75426943       8.69559387        0       0.00033676      -0.00042608      -0.00014832
Ti       6.99355372       0.88130109      11.23648813        0      -0.00004190       0.00012686      -0.00037156
O        5.45192235       1.72216980      12.25203142        3       0.00033616      -0.00012003       0.00023693
O        6.98888802       0.88004705       7.75607634        1      -0.00040463      -0.00000498       0.00047326
C        3.95404658       2.62986313       9.98032156        2       0.00004649      -0.00003570      -0.00034382
Ti       3.95457307       4.37673059       8.69233518        0       0.00026556       0.00032841      -0.00009789
Ti       5.46693346       3.50084819      11.29394806        0       0.00059495       0.00044832       0.00002357
O        3.93861864       4.37856355      12.25282187        3       0.00000445      -0.00024337      -0.00019418
O        5.46842788       3.50481118       7.75940625        1       0.00014735       0.00002128      -0.00016104
C        2.43868343       5.25265705       9.98893450        2       0.00010526       0.00011930      -0.00030297
Ti       2.43839808       6.99911757       8.69989398        0       0.00011352       0.00045567      -0.00029688
Ti       3.97034571       6.13170967      11.20592977        0       0.00026867       0.00050764      -0.00040215
O        2.42860180       7.00172007      12.35043093        3       0.00045945       0.00002030       0.00003419
O        3.95056531       6.12315605       7.75311118        1      -0.00039785       0.00001778       0.00014605
C        0.92589165       7.87031232       9.98486050        2       0.00004414      -0.00014920      -0.00071140
Ti       0.92434297       9.62617818       8.69010892        0       0.00006684       0.00027664       0.00024461
Ti       2.43751416       8.75469088      11.22832953        0      -0.00003334       0.00021947      -0.00024400
O        0.87926709       9.61325823      12.28069451        3       0.00004509       0.00014806       0.00003206
O        2.43764300       8.74889907       7.75387457        1      -0.00010616      -0.00031838       0.00020263
C        8.49651726      -0.00206372      10.00074382        2      -0.00011974       0.00025126       0.00023152
Ti       8.49914728       1.75304316       8.70102146        0       0.00015758      -0.00009877      -0.00011385
Ti      10.01748414       0.86162760      11.24105985        0       0.00033011      -0.00019679      -0.00046638
O        8.50432967       1.75383128      12.25522648        3      -0.00003335       0.00020354       0.00036772
O       10.00493120       0.87835243       7.75815557        1       0.00010236       0.00003554      -0.00034062
C        6.97897662       2.62756445      10.00065058        2      -0.00000878      -0.00018532       0.00022372
Ti       6.97740953       4.37552532       8.70822781        0       0.00021046      -0.00035633       0.00012898
Ti       8.48518221       3.51755076      11.21901152        0      -0.00057194      -0.00018568      -0.00059110
O        6.99161455       4.38547199      12.24205048        3       0.00031930      -0.00003760      -0.00032039
O        8.49276578       3.49696810       7.75759848        1       0.00010897      -0.00001954      -0.00013586
C        5.46872648       5.25406839      10.00453757        2       0.00022115      -0.00059252      -0.00000033
Ti       5.46614036       6.99857034       8.68950722        0      -0.00046116      -0.00015047      -0.00009732
Ti       6.98662648       6.13225772      11.28663583        0      -0.00044209      -0.00051945      -0.00001004
O        5.46372096       7.03039038      12.26391308        3       0.00001358      -0.00010046      -0.00010781
O        6.97304924       6.11486887       7.74699865        1       0.00033532       0.00015639       0.00012628
C        3.94835056       7.87485757       9.98803744        2      -0.00013212      -0.00015197       0.00009837
Ti       3.94759500       9.62260839       8.69055560        0      -0.00041543      -0.00032869      -0.00022166
Ti       5.49333359       8.76139974      11.18318204        0      -0.00013620       0.00037401      -0.00020304
O        3.96482753       9.60806580      12.25676142        3       0.00017574       0.00010903       0.00018566
O        5.45561951       8.74600350       7.73966764        1       0.00014104       0.00028196      -0.00016091
C        0.99875853      -0.00215276      16.97748770       10       0.00035867      -0.00018508       0.00009226
C        2.20983699       0.69606508      16.92510545       10       0.00006990       0.00031746      -0.00020876
C       -0.21308288       2.09598860      16.99792574       10      -0.00030768      -0.00019885       0.00025817
C        0.99896512       2.79707990      16.93653571       10      -0.00040028      -0.00029333       0.00004289
C       -1.42526422       4.19511841      16.92744850       10       0.00007571       0.00029975      -0.00012590
C       -0.21543701       4.89560222      16.88262072       10       0.00048529      -0.00014324      -0.00031676
C       -2.63005604       6.30039539      16.80151039       10      -0.00014666      -0.00015986       0.00007349
C       -1.42451296       6.98808669      16.70255406       10      -0.00000641      -0.00042002      -0.00012926
C       -3.84096986       8.39861029      16.82823735       10      -0.00024288       0.00014420      -0.00008204
C       -2.64365238       9.10082762      16.72883580       10      -0.00031854       0.00021455      -0.00017682
C        3.42324999      -0.00978414      16.83814534       10      -0.00022457       0.00017491      -0.00052206
C        4.63490351       0.69803718      16.85231089       10      -0.00014774      -0.00016443      -0.00012447
C        2.21295628       2.09543335      16.91302455       10      -0.00015797       0.00029606      -0.00006092
C        3.42438769       2.79565727      16.87286383       10       0.00004430       0.00008259      -0.00019227
C        0.99627440       4.19746822      16.88482200       10       0.00025041      -0.00037214      -0.00021171
C        2.21066254       4.89552737      16.84328830       10       0.00006806       0.00006972      -0.00017721
C       -0.22091062       6.29980617      16.79744701       10       0.00014168      -0.00025590      -0.00052805
C        0.99803222       6.99612090      16.81207319       10      -0.00025288       0.00020067       0.00026742
C       -1.41964654       8.40463974      16.29150755       10       0.00002360      -0.00006823       0.00058330
C       -0.20452553       9.10141394      16.75469628       10       0.00035840       0.00024724      -0.00013163
C        5.84764816      -0.01001045      16.87569211       10      -0.00001143       0.00026316      -0.00074082
C        7.05989934       0.69680157      16.98672896       10      -0.00028877       0.00029337       0.00044390
C        4.63617462       2.09528873      16.88315024       10       0.00003936      -0.00024681      -0.00043689
C        5.84785310       2.79654597      16.90950054       10       0.00009462      -0.00005361      -0.00037026
C        3.42484230       4.19499565      16.84873658       10       0.00011213       0.00016174       0.00002308
C        4.63708495       4.89570308      16.84594196       10       0.00006277       0.00000900       0.00005217
C        2.20898280       6.29822797      16.83599071       10      -0.00032589       0.00024014       0.00011078
C        3.42351647       6.99700217      16.87054576       10      -0.00000221       0.00009790       0.00004274
C        0.99158583       8.40047718      16.85719918       10       0.00034673       0.00013188      -0.00005061
C        2.20918848       9.09648307      16.97914032       10       0.00029944      -0.00013520       0.00051660
C        8.26990528      -0.00247582      17.03592273       10      -0.00042364      -0.00006060       0.00019303
C        9.48270019       0.69643728      17.06916410       10      -0.00025296      -0.00028009       0.00039776
C        7.05759407       2.09548357      16.97320593       10       0.00016194       0.00020027      -0.00012514
C        8.26913343       2.79759113      16.98799071       10       0.00030683      -0.00028132       0.00023319
C        5.84863177       4.19566206      16.88340246       10       0.00002410       0.00002865       0.00030487
C        7.06008433       4.89593994      16.88295061       10      -0.00001701       0.00009026       0.00007145
C        4.63655749       6.29593282      16.85883006       10       0.00001853      -0.00005571       0.00016883
C        5.84932299       6.99581637      16.88218860       10      -0.00000006       0.00009502       0.00088511
C        3.42043895       8.39594277      16.96202860       10       0.00038816       0.00010828       0.00046131
C        4.63599808       9.09418425      17.01048534       10       0.00009613       0.00040332       0.00049995
C       10.69510594      -0.00266507      17.06078226       10       0.00004159       0.00022041       0.00038166
C       11.90689513       0.69662603      17.03187854       10       0.00025894      -0.00023826       0.00011787
C        9.48132719       2.09660482      17.03610357       10       0.00015753      -0.00026577       0.00000928
C       10.69491037       2.79632994      16.99929362       10      -0.00011369       0.00025336      -0.00015506
C        8.27177274       4.19710506      16.92308986       10      -0.00021193      -0.00035044       0.00023509
C        9.48397387       4.89471869      16.89486852       10      -0.00033759      -0.00012265      -0.00026794
C        7.06272846       6.29632455      16.85820365       10       0.00025971       0.00033013       0.00059439
C        8.27089563       6.99505032      16.81176369       10       0.00020286       0.00024063       0.00026873
C        5.85025774       8.39522076      16.94769624       10      -0.00028367       0.00008375       0.00029314
C        7.06069783       9.09639515      16.94085075       10      -0.00018349      -0.00020823       0.00058288
O       -1.40988686       8.43421756      14.83685948       11      -0.00031200      -0.00028956      -0.00066667
Na      -3.54792641       8.98453784      13.94987633        0       0.00014565      -0.00009330       0.00017980
Na       0.69914488       7.93727970      13.86696258        0       0.00014240       0.00068499      -0.00046001
Na       4.49252061       8.22506319      13.97415801        0      -0.00039868      -0.00013261       0.00060406
Na      -2.05600383       6.30552619      13.95946401        0      -0.00082400      -0.00029926       0.00026280
Na       2.63868952       5.17213568      13.87741187        0      -0.00010691       0.00026193      -0.00055239
Na       0.98381213       2.33980686      13.89126970        0       0.00049774      -0.00061204       0.00038348
Na       5.32937419       0.09142033      13.88164710        0      -0.00030049       0.00027523      -0.00043724
Na       9.68736776       2.60882533      13.94143972        0       0.00027057      -0.00009467       0.00047786
