136
Lattice="12.12 0.0 0.0 -6.06 10.496227893867395 0.0 0.0 0.0 40.0" Properties=species:S:1:pos:R:3:tags:I:1:forces:R:3 energy=-1224.2255683561918 stress="0.0030694115025645713 -5.001482891275707e-06 -2.203382328315311e-06 -5.001482891275707e-06 0.0030787406102164216 1.5428287425081026e-06 -2.203382328315311e-06 1.5428287425081026e-06 0.0022991245148915266" pbc="T T F"
C       -0.33039227       0.87335185       9.95544372        2      -0.00016918       0.00000976      -0.00036762
Ti      -0.33001833       2.61804197       8.66824272        0      -0.00003060       0.00027362       0.00021179
Ti       1.19654811       1.75322163      11.21335351        0      -0.00016396      -0.00005536       0.00061765
O       -0.32949302       2.60167520      12.23832363        3       0.00021485       0.00012258       0.00037880
O        1.19059318       1.75452325       7.73181361        1      -0.00022152       0.00038468       0.00009587
C       -1.84099831       3.49748155       9.96386607        2      -0.00016907       0.00013525       0.00028667
Ti      -1.84388000       5.24430357       8.65794554        0      -0.00015993       0.00021325      -0.00021679
Ti      -0.33217768       4.34923025      11.20382737        0      -0.00010856      -0.00034397      -0.00010081
O       -1.85366147       5.25978947      12.22903816        3       0.00031266       0.00047073       0.00035619
O       -0.32691359       4.36987681       7.72888795        1       0.00001182      -0.00021461      -0.00005510
C       -3.36003615       6.12106887       9.94501710        2       0.00032696       0.00000085      -0.00010747
Ti      -3.35875118       7.87236360       8.65174734        0      -0.00028183       0.00003778      -0.00028030
Ti      -1.85043812       6.99801117      11.15538290        0      -0.00032312      -0.00012373      -0.00065853
O       -3.35294918       7.86470435      12.22460625        3       0.00018157      -0.00003015      -0.00035843
O       -1.83934438       6.99546140       7.71768740        1      -0.00025734      -0.00013852       0.00004108
C       -4.87457119       8.74814233       9.94903752        2       0.00019518      -0.00053462       0.00021767
Ti      -4.87790020      10.49933356       8.66430439        0      -0.00011621       0.00078101      -0.00006120
Ti      -3.38290893       9.62514802      11.20048017        0      -0.00038890      -0.00001557      -0.00019740
O       -4.89906810      10.50335436      12.23357052        3       0.00014657       0.00008474      -0.00023401
O       -3.35573252       9.62647857       7.72621038        1       0.00014135       0.00019170      -0.00060397
C        2.69974251       0.87282660       9.97028988        2      -0.00010817      -0.00001589       0.00027144
Ti       2.70503336       2.62236535       8.68106840        0       0.00002377      -0.00001507       0.00059067
Ti       4.21380127       1.74637722      11.27689914        0      -0.00035641      -0.00006736       0.00012558
O        2.69170405       2.62357891      12.21219830        3      -0.00021776      -0.00006766       0.00015846
O        4.21770607       1.75167959       7.74659119        1       0.00022617       0.00013193      -0.00018142
C        1.18408503       3.50041074       9.97185223        2       0.00014578      -0.00002746       0.00006423
Ti       1.18696295       5.24733360       8.67301441        0      -0.00045885      -0.00019096      -0.00000545
Ti       2.69799783       4.36205752      11.23025853        0      -0.00005870      -0.00041941      -0.00001356
O        1.19228131       5.27398254      12.26497643        3       0.00019140       0.00009304      -0.00017882
O        2.70096507       4.36739464       7.73655515        1      -0.00017437       0.00019134      -0.00042643
C       -0.32805427       6.11672396       9.95836241        2       0.00015900       0.00038079       0.00016053
Ti      -0.32981139       7.87286597       8.65948281        0      -0.00020752      -0.00006840      -0.00011942
Ti       1.18755266       7.00775508      11.18997722        0       0.00068992      -0.00049386      -0.00029120
O       -0.34914086       7.85612420      12.23490759        3      -0.00012366       0.00019089      -0.00004858
O        1.18560060       6.99644784       7.72894762        1       0.00016186       0.00000847      -0.00014863
C       -1.84753799       8.74642765       9.95347607        2       0.00027288       0.00002361       0.00044038
Ti      -1.84357709      10.49650811       8.67752453        0       0.00010845       0.00010610       0.00012522
Ti      -0.31214972       9.62151579      11.20466063        0      -0.00030629       0.00048898      -0.00036127
O       -1.85301497      10.47223361      12.22070135        3      -0.00006186      -0.00028851       0.00003960
O       -0.32543076       9.62475722       7.73673973        1       0.00011141       0.00041423      -0.00025417
C        5.73060617       0.87272055       9.98324195        2       0.00039618       0.00013304       0.00022872
Ti       5.73003813       2.62168000       8.69919142        0       0.00001178       0.00016971       0.00030311
Ti       7.24779051       1.74624851      11.28145890        0       0.00028764      -0.00020735       0.00014764
O        5.72881028       2.62636877      12.22331117        3       0.00043476      -0.00000286       0.00009848
O        7.24207348       1.74722570       7.74874091        1      -0.00019901      -0.00039990       0.00019137
C        4.21514488       3.49800826       9.98524410        2      -0.00019097       0.00020856      -0.00010183
Ti       4.21399908       5.24363272       8.67416214        0       0.00049420      -0.00001454      -0.00015377
Ti       5.72874047       4.37262966      11.26511364        0      -0.00000191      -0.00065041      -0.00041355
O        4.20592128       5.26722773      12.23103906        3      -0.00064824      -0.00005190       0.00032012
O        5.72742560       4.36353962       7.74081102        1      -0.00011758      -0.00021447      -0.00001410
C        2.69809035       6.12064405       9.95929505        2      -0.00035598      -0.00027864      -0.00007696
Ti       2.69963073       7.87197214       8.67071474        0       0.00071499      -0.00003946       0.00000602
Ti       4.23545672       7.00907283      11.17648542        0      -0.00002296      -0.00006637       0.00002179
O        2.71046605       7.84075747      12.23855155        3       0.00030720      -0.00036561       0.00005028
O        4.21163836       6.99266664       7.72563062        1      -0.00002456      -0.00008141      -0.00008558
C        1.19034757       8.74575645       9.97347354        2       0.00043008      -0.00005965       0.00013186
Ti       1.18815709      10.49780900       8.68904870        0       0.00024362       0.00007835      -0.00003639
Ti       2.70767937       9.61822981      11.28081667        0       0.00024531       0.00007778      -0.00006385
O        1.18368175      10.48150653      12.21962335        3      -0.00012868      -0.00013977      -0.00001801
O        2.69492008       9.62309472       7.74156076        1      -0.00002879       0.00018189       0.00024585
C        8.76089665       0.86841427       9.98323724        2      -0.00031882      -0.00010492       0.00001492
Ti       8.75589563       2.61982055       8.67677356        0      -0.00038374       0.00001561      -0.00010122
Ti      10.26276951       1.75186571      11.21217447        0      -0.00000987       0.00030303       0.00025364
O        8.76893851       2.63181091      12.20910315        3       0.00015791      -0.00015230       0.00024617
O       10.27036132       1.75032802       7.73435259        1       0.00003722       0.00009247       0.00037650
C        7.24241106       3.49666696       9.97756410        2      -0.00005414       0.00027052       0.00059177
Ti       7.24357029       5.24348125       8.66852512        0      -0.00034809      -0.00056506      -0.00012209
Ti       8.76351725       4.35619672      11.20231345        0       0.00047290      -0.00046171      -0.00010181
O        7.25652637       5.26333287      12.21081558        3       0.00002614      -0.00016386       0.00014978
O        8.75958167       4.36374236       7.72928274        1      -0.00002439       0.00007369       0.00039397
C        5.73155597       6.11896548       9.95505536        2       0.00007885       0.00041524       0.00003609
Ti       5.73001340       7.87087818       8.64861967        0      -0.00009310       0.00048772      -0.00004527
Ti       7.23234793       7.01150082      11.18614252        0      -0.00011420       0.00024506      -0.00024519
O        5.73355567       7.86612386      12.19176248        3       0.00002517       0.00012335      -0.00017328
O        7.24328733       6.99250399       7.71857709        1      -0.00035403      -0.00002597       0.00010385
C        4.21299999       8.74868142       9.96223590        2       0.00012421       0.00019646       0.00025949
Ti       4.21413348      10.49602290       8.67860899        0      -0.00042499       0.00028408      -0.00003596
Ti       5.73056343       9.60526716      11.20471989        0       0.00024879      -0.00063072       0.00038927
O        4.24819570      10.50456212      12.24434187        3      -0.00003586      -0.00032265      -0.00006694
O        5.72717892       9.62248961       7.72475403        1      -0.00031479       0.00034906      -0.00002347
C        0.47962482      -1.38153588      16.94899885       10       0.00016795      -0.00020856       0.00020083
C        1.69004338      -0.68157688      16.91512354       10       0.00008885       0.00003698       0.00023740
C       -0.73100019       0.71623886      16.93604145       10      -0.00028549       0.00004181       0.00006654
C        0.48235060       1.41627521      16.89123711       10       0.00008352      -0.00025116       0.00069806
C       -1.94287173       2.81282671      16.94822720       10      -0.00002239       0.00013965       0.00010572
C       -0.73121902       3.51094687      16.92716037       10       0.00021222       0.00008966      -0.00033542
C       -3.14847249       4.91608886      16.89148662       10      -0.00023273       0.00006637      -0.00017874
C       -1.94263154       5.60174524      16.83489103       10      -0.00015670       0.00005090      -0.00057185
C       -4.36136982       7.01846332      16.89181745       10       0.00025660      -0.00004210       0.00050521
C       -3.16509093       7.72032995      16.82747125       10       0.00020475       0.00027506      -0.00019173
C        2.90414978      -1.38862502      16.88161278       10      -0.00011325       0.00041314      -0.00012851
C        4.11776462      -0.68160451      16.86143529       10      -0.00001079      -0.00004581      -0.00031477
C        1.69445177       0.71590696      16.86760778       10       0.00024948       0.00014926       0.00000186
C        2.90601908       1.41584941      16.81728603       10       0.00016577       0.00011202       0.00005898
C        0.48132697       2.81593269      16.87806542       10       0.00009644      -0.00029572       0.00018084
C        1.69381806       3.51459487      16.82888437       10      -0.00049694       0.00026816      -0.00015982
C       -0.73702593       4.91623486      16.89719760       10      -0.00003485       0.00014653      -0.00064325
C        0.48203508       5.61432627      16.87905795       10       0.00008979      -0.00002278       0.00005782
C       -1.93883438       7.01447871      16.41680801       10       0.00014323       0.00009521      -0.00006980
C       -0.71932855       7.72079615      16.84772974       10       0.00035616      -0.00038327      -0.00032583
C        5.33147814      -1.38785767      16.90480506       10      -0.00005097      -0.00044259      -0.00006415
C        6.54493099      -0.68047709      16.95524401       10      -0.00010282       0.00011472      -0.00038221
C        4.11861595       0.71551616      16.82903808       10       0.00031497       0.00011345      -0.00033696
C        5.33116768       1.41570782      16.83299724       10       0.00000165       0.00000173      -0.00040029
C        2.90612553       2.81539726      16.79430624       10      -0.00033415       0.00020454       0.00050763
C        4.11906827       3.51474827      16.77960140       10      -0.00039032      -0.00006094       0.00060822
C        1.69174344       4.91495918      16.84638436       10       0.00019630       0.00007965      -0.00008039
C        2.90586062       5.61461088      16.85149211       10       0.00030760       0.00014053      -0.00005741
C        0.47684476       7.01906952      16.91475619       10       0.00018295      -0.00033141      -0.00043599
C        1.69556612       7.71755029      16.96583488       10       0.00007009       0.00017395       0.00009733
C        7.75518803      -1.38037982      16.98839755       10      -0.00016662      -0.00000915       0.00050662
C        8.96667157      -0.68165996      16.98023546       10       0.00018456      -0.00018899      -0.00023183
C        6.54153249       0.71663788      16.90467861       10      -0.00006710       0.00005570       0.00028731
C        7.75285593       1.41637942      16.92497280       10      -0.00021885      -0.00018732      -0.00038543
C        5.33118072       2.81469421      16.80119617       10      -0.00028578      -0.00013307       0.00040413
C        6.54249930       3.51440710      16.83689129       10      -0.00041082      -0.00017613      -0.00017500
C        4.11896764       4.91449844      16.80836876       10       0.00021765      -0.00011379      -0.00002645
C        5.33047012       5.61512006      16.84174972       10      -0.00011284       0.00013519      -0.00009042
C        2.90498772       7.01534370      16.92274889       10      -0.00012288      -0.00000197      -0.00003829
C        4.11838592       7.71422279      16.93777482       10      -0.00018610       0.00027962      -0.00023371
C       10.17716236      -1.38265655      16.96924142       10       0.00037980       0.00010034      -0.00027071
C       11.38799258      -0.68308967      16.95209041       10       0.00051721      -0.00000679       0.00011941
C        8.96443677       0.71684662      16.96007978       10      -0.00026937      -0.00024682       0.00049361
C       10.17624902       1.41460428      16.94744224       10      -0.00039120       0.00010504       0.00005020
C        7.75378796       2.81521957      16.89715819       10       0.00007866      -0.00004964       0.00018587
C        8.96579923       3.51133206      16.93385539       10       0.00004102       0.00011126      -0.00021592
C        6.54331061       4.91486188      16.84262226       10      -0.00026449       0.00008907       0.00027015
C        7.75297586       5.61392287      16.86759263       10      -0.00016933      -0.00023294      -0.00038684
C        5.33053205       7.01427587      16.90661452       10      -0.00025541       0.00034157      -0.00063783
C        6.53954679       7.71637832      16.93952394       10       0.00030144      -0.00042328      -0.00009478
O       -1.92543404       7.01716343      14.99151229       11      -0.00005519      -0.00040308      -0.00024150
Na      -0.33872618       5.97212498      13.83660547        0       0.00031683      -0.00003093       0.00021951
Na       3.10874915       6.26709533      13.93415851        0      -0.00037876      -0.00020702       0.00010350
Na       8.51967852       6.06316206      13.86589055        0      -0.00016258       0.00018078      -0.00025484
Na      -1.82796319       8.94591100      13.86373836        0       0.00031428       0.00023362      -0.00005372
Na      -0.33568216       0.87166813      13.89435520        0       0.00050891      -0.00018059       0.00045496
