138
Lattice="12.12 0.0 0.0 -6.06 10.496227893867395 0.0 0.0 0.0 40.0" Properties=species:S:1:pos:R:3:tags:I:1:forces:R:3 energy=-1230.0874259659433 stress="0.003199709555581438 -4.076571907491349e-08 1.7830200656460347e-08 -4.076571907491349e-08 0.0031996846343058686 1.1095507776790145e-07 1.7830200656460347e-08 1.1095507776790145e-07 0.002400717431379003" pbc="T T F"
C       -0.92986913       0.55721495       9.95776007        2      -0.00026893       0.00024176       0.00044436
Ti      -0.92989386       2.30207232       8.66916828        0       0.00033890      -0.00019310       0.00035314
Ti       0.59649812       1.43846757      11.21281727        0      -0.00004940       0.00050959      -0.00045562
O       -0.92988864       2.28649089      12.24309596        3       0.00010978       0.00001410       0.00002732
O        0.58687718       1.43295817       7.72720843        1       0.00003139      -0.00021027       0.00001756
C       -2.44085033       3.18318061       9.96394807        2       0.00010654      -0.00062356       0.00003617
Ti      -2.44444662       4.92920294       8.66103479        0      -0.00040731       0.00002505       0.00013598
Ti      -0.92990059       4.03301742      11.19946394        0       0.00041708      -0.00018269       0.00001788
O       -2.45949737       4.95385318      12.26472240        3      -0.00013208       0.00032631       0.00042267
O       -0.92989495       4.05238749       7.72495320        1       0.00014931      -0.00004036       0.00015390
C       -3.96002571       5.80524741       9.95057780        2      -0.00015065       0.00014707       0.00052432
Ti      -3.96094876       7.55581070       8.66108132        0       0.00044899      -0.00013572      -0.00021670
Ti      -2.44470049       6.68015407      11.15236131        0       0.00018611      -0.00008256      -0.00035173
O       -3.94709135       7.53041450      12.26474457        3      -0.00022349       0.00001817       0.00001175
O       -2.44520943       6.67983680       7.71684182        1      -0.00018360      -0.00012234      -0.00028712
C       -5.47124747       8.43196144       9.96388407        2      -0.00020489       0.00000635       0.00033822
Ti      -5.47881261      10.18103651       8.66914647        0      -0.00019476      -0.00005528      -0.00011199
Ti      -3.97977963       9.31557743      11.19945909        0       0.00017555      -0.00006833      -0.00004879
O       -5.49232174      10.18877419      12.24302188        3       0.00037041       0.00012481       0.00054231
O       -3.96296526       9.30588913       7.72499112        1       0.00009086       0.00006624       0.00005344
C        2.09970276       0.55277439       9.96398614        2      -0.00001551       0.00051724      -0.00009483
Ti       2.10058976       2.30683496       8.66096466        0      -0.00037720       0.00035236       0.00036411
Ti       3.59827500       1.43639352      11.19628653        0       0.00024921      -0.00016705      -0.00037536
O        2.10447842       2.30910545      12.19963418        3      -0.00031951      -0.00010351       0.00019065
O        3.61324038       1.43394387       7.72357919        1       0.00004636      -0.00026364      -0.00044487
C        0.58107141       3.18315225       9.96397947        2       0.00010721      -0.00025440      -0.00007179
Ti       0.58467960       4.92921155       8.66107634        0       0.00039496      -0.00029345       0.00016058
Ti       2.09555091       4.03919497      11.19628436        0      -0.00016129       0.00004027      -0.00029664
O        0.59977894       4.95387789      12.26476478        3       0.00004121       0.00009466      -0.00002680
O        2.10091142       4.05326938       7.72348069        1      -0.00010417       0.00023601      -0.00004662
C       -0.92986757       5.79700407       9.95162452        2      -0.00000971      -0.00004673      -0.00008396
Ti      -0.92986368       7.55470015       8.64174317        0      -0.00005684       0.00046706       0.00039737
Ti       0.58496424       6.68015793      11.15239863        0      -0.00001268      -0.00031009      -0.00077519
O       -0.92980629       7.55471167      12.19498234        3      -0.00056044      -0.00008092       0.00007836
O        0.58547767       6.67980430       7.71682994        1       0.00009031       0.00003383      -0.00017095
C       -2.45209419       8.43356293       9.95163773        2      -0.00009634       0.00020699       0.00011654
Ti      -2.44635909      10.17915802       8.66113856        0       0.00028689      -0.00059253      -0.00022049
Ti      -0.92988302       9.30389210      11.15237462        0      -0.00003067      -0.00004677       0.00000062
O       -2.41749301      10.17983943      12.26482219        3       0.00009414       0.00014180      -0.00031176
O       -0.92986004       9.30454460       7.71686368        1      -0.00016370      -0.00019595       0.00008212
C        5.13013278       0.55741124       9.95071117        2      -0.00012251       0.00019235      -0.00014622
Ti       5.13013740       2.30648154       8.66657249        0       0.00000749       0.00002632      -0.00023290
Ti       6.66195069       1.43636672      11.19636847        0      -0.00012414       0.00027490      -0.00041480
O        5.13010154       2.29968628      12.21566132        3       0.00008065      -0.00011172      -0.00053197
O        6.64699285       1.43391023       7.72355022        1       0.00014844       0.00003146      -0.00003897
C        3.61563829       3.18160557       9.96004819        2       0.00016141      -0.00021072       0.00030350
Ti       3.61503447       4.93063961       8.66637379        0      -0.00002678       0.00017631       0.00046510
Ti       5.13012738       4.05603688      11.24183526        0       0.00003329      -0.00052516      -0.00016891
O        3.60908512       4.93418348      12.21558324        3      -0.00004838       0.00004927      -0.00003577
O        5.13011564       4.05585800       7.72663237        1       0.00015246       0.00054308      -0.00015866
C        2.10029966       5.80521726       9.95057870        2      -0.00016817       0.00030984       0.00048794
Ti       2.10121647       7.55577856       8.66104983        0      -0.00032925      -0.00003834       0.00022426
Ti       3.62740887       6.69237602      11.19616188        0      -0.00018212       0.00016318      -0.00041166
O        2.08735424       7.53045082      12.26475615        3       0.00021424      -0.00014503       0.00008865
O        3.61780657       6.68057932       7.72340036        1       0.00007303       0.00031462       0.00025100
C        0.59237642       8.43357634       9.95164014        2      -0.00012715      -0.00006059      -0.00004273
Ti       0.58660485      10.17911946       8.66111134        0      -0.00024431      -0.00000833       0.00006785
Ti       2.12002461       9.31559366      11.19948127        0       0.00016157      -0.00017917      -0.00055139
O        0.55769071      10.17987530      12.26475461        3       0.00014316      -0.00000461       0.00014312
O        2.10320055       9.30584836       7.72498303        1       0.00019188       0.00027616      -0.00014305
C        8.16054768       0.55280173       9.96398312        2      -0.00003215       0.00020985      -0.00012568
Ti       8.15966335       2.30682909       8.66097987        0      -0.00006398       0.00031296       0.00016529
Ti       9.66373335       1.43850452      11.21282756        0       0.00001635       0.00001829      -0.00019544
O        8.15578501       2.30916647      12.19962788        3       0.00017856      -0.00023441       0.00013086
O        9.67338489       1.43292661       7.72718502        1      -0.00028356       0.00001924       0.00004567
C        6.64460990       3.18161553       9.96009009        2      -0.00026953      -0.00031051      -0.00041656
Ti       6.64519415       4.93064170       8.66641597        0       0.00020058       0.00026730       0.00014713
Ti       8.16469757       4.03922933      11.19621117        0      -0.00025936      -0.00025336      -0.00003892
O        6.65113531       4.93423833      12.21555283        3       0.00027389      -0.00030211       0.00016133
O        8.15930558       4.05327269       7.72346118        1       0.00021676       0.00022805       0.00018352
C        5.13010635       5.80471643       9.95997461        2       0.00024820       0.00007030       0.00004916
Ti       5.13014628       7.55412593       8.66086844        0      -0.00024928       0.00040971       0.00003747
Ti       6.63285939       6.69242864      11.19620400        0      -0.00001101      -0.00038416      -0.00013612
O        5.13008267       7.54972670      12.19954864        3       0.00029955      -0.00008749       0.00018321
O        6.64248389       6.68059221       7.72344973        1      -0.00029005       0.00017164      -0.00005892
C        3.61151221       8.43195977       9.96387408        2      -0.00015064      -0.00001800       0.00024121
Ti       3.61905043      10.18103332       8.66909462        0       0.00048017      -0.00024389       0.00054690
Ti       5.13010121       9.29094842      11.21269208        0      -0.00006100      -0.00025309      -0.00003260
O        3.63250959      10.18881529      12.24305343        3       0.00017066      -0.00005630       0.00020478
O        5.13014759       9.30202075       7.72710459        1      -0.00021262       0.00028459       0.00055903
C        1.49263514      -0.84138616      16.97745856       10      -0.00016728       0.00023243       0.00026565
C        2.70280024      -0.14151925      16.95787166       10      -0.00015941       0.00013737       0.00013965
C        0.28266201       1.25743113      16.97973318       10      -0.00032620       0.00002466      -0.00015544
C        1.49429390       1.95699855      16.96812143       10      -0.00002777      -0.00056704       0.00028960
C       -0.92998350       3.35470594      16.97788209       10       0.00005609       0.00023560       0.00002500
C        0.28118389       4.05283628      16.95833626       10       0.00023137      -0.00029113      -0.00003266
C       -2.13625555       5.45763941      16.89743230       10      -0.00020673      -0.00028680       0.00009462
C       -0.92996956       6.14363516      16.82883933       10      -0.00019736      -0.00006458       0.00052728
C       -3.34932926       7.55871468      16.89729803       10      -0.00009218      -0.00002279      -0.00010057
C       -2.15209340       8.26039106      16.82873278       10      -0.00003368       0.00018120       0.00001416
C        3.91696611      -0.84816435      16.89738730       10      -0.00029585       0.00025420      -0.00018855
C        5.13002718      -0.14308054      16.88432103       10      -0.00007128      -0.00004221       0.00005139
C        2.70573750       1.25668874      16.94716114       10       0.00019906      -0.00007703      -0.00007523
C        3.91668375       1.95703455      16.90195565       10       0.00008802       0.00000322      -0.00000029
C        1.49354056       3.35629736      16.94748209       10       0.00004861      -0.00061997       0.00006243
C        2.70554458       4.05480245      16.90230322       10      -0.00026440       0.00005354      -0.00007980
C        0.27629920       5.45764875      16.89777876       10      -0.00012768      -0.00017810      -0.00003959
C        1.49344580       6.15564099      16.88482006       10      -0.00002095      -0.00004940      -0.00021094
C       -0.92994295       7.55480734      16.40795760       10       0.00006459       0.00010907      -0.00014785
C        0.29212430       8.26039365      16.82899003       10       0.00024133      -0.00002177       0.00010221
C        6.34308423      -0.84815934      16.89759232       10       0.00000110      -0.00001886      -0.00003675
C        7.55724548      -0.14152647      16.95820780       10      -0.00017477       0.00033190      -0.00017205
C        5.13001939       1.25542081      16.89528921       10       0.00009233      -0.00006862       0.00004268
C        6.34335857       1.95702728      16.90194242       10      -0.00008005       0.00012868       0.00018665
C        3.91779445       3.35618353      16.88597271       10      -0.00024361       0.00003383       0.00021369
C        5.13002298       4.05606786      16.86903880       10      -0.00011603      -0.00025337      -0.00006490
C        2.70457534       5.45637956      16.89583559       10       0.00018782       0.00020440      -0.00043849
C        3.91885253       6.15634490      16.90230311       10       0.00045899       0.00015085      -0.00022425
C        1.48934891       7.55872176      16.89787455       10       0.00006018      -0.00010489      -0.00043582
C        2.70840591       8.25688595      16.95834283       10       0.00007017       0.00008101       0.00014757
C        8.76741149      -0.84137974      16.97789964       10      -0.00012769       0.00017711      -0.00000075
C        9.97839973      -0.14220128      16.98111700       10       0.00025713      -0.00017539      -0.00017950
C        7.55429882       1.25667560      16.94725457       10      -0.00007897       0.00019095       0.00007894
C        8.76574411       1.95698497      16.96811572       10       0.00004168      -0.00016743       0.00025617
C        6.34225449       3.35617888      16.88584682       10       0.00000187      -0.00000031      -0.00001390
C        7.55450316       4.05479899      16.90197796       10      -0.00003237       0.00008369      -0.00017287
C        5.13000804       5.45582899      16.88601056       10       0.00025362      -0.00025151      -0.00019673
C        6.34116490       6.15634660      16.90193512       10      -0.00005739       0.00018064      -0.00026275
C        3.91780107       7.55522602      16.94740082       10       0.00030357       0.00023882       0.00015839
C        5.13000579       8.25422533      16.96796253       10       0.00019684       0.00020750       0.00033404
C       11.19001199      -0.84291126      16.97961514       10       0.00024143       0.00003978       0.00001915
C       12.40163941      -0.14221526      16.98091380       10      -0.00014505       0.00018178      -0.00025853
C        9.97738571       1.25743828      16.97977638       10       0.00012291      -0.00014584      -0.00002318
C       11.19002468       1.95636383      16.98117796       10      -0.00011066       0.00025222      -0.00039775
C        8.76649519       3.35628034      16.94724444       10       0.00004921      -0.00021568      -0.00009350
C        9.97884565       4.05282736      16.95810257       10      -0.00003456      -0.00019624       0.00009759
C        7.55545535       5.45638128      16.89527751       10      -0.00024295       0.00013831      -0.00005340
C        8.76659402       6.15563519      16.88421603       10      -0.00011963      -0.00014129      -0.00001137
C        6.34221092       7.55523031      16.94699872       10      -0.00008491       0.00016377       0.00049535
C        7.55161542       8.25688091      16.95776478       10      -0.00002780       0.00009125       0.00013362
O       -0.92988936       7.55485151      14.96690464       11       0.00029378      -0.00028313      -0.00031479
Na      -0.92984796       5.60401849      13.85007944        0       0.00006652      -0.00006485      -0.00021546
Na       2.41527325       5.62417018      13.93094330        0      -0.00035403      -0.00007619      -0.00005192
Na       7.84531713       5.62356533      13.93095630        0       0.00015983       0.00006766      -0.00037203
Na      -2.61941745       8.53012602      13.85013211        0       0.00002700      -0.00006063      -0.00034043
Na      -0.92965232       0.55696823      13.90949752        0      -0.00024963       0.00017520       0.00066703
Na       0.75943627       8.53017741      13.84996652        0       0.00001073       0.00013052       0.00014633
Na       5.12946998       0.92087432      13.93100167        0       0.00023667      -0.00045893      -0.00007101
