140
Lattice="12.12 0.0 0.0 -6.06 10.496227893867395 0.0 0.0 0.0 40.0" Properties=species:S:1:pos:R:3:tags:I:1:forces:R:3 stress="0.003360294006371188 1.0275305954755714e-05 2.3830381309498254e-06 1.0275305954755714e-05 0.0033477897900581408 -4.281331074329952e-06 2.3830381309498254e-06 -4.281331074329952e-06 0.0024243777951119226" energy=-1236.9939225882915 pbc="T T F"
C        0.14833039      -0.02886661      10.02523841        2       0.00011702      -0.00003676       0.00008101
Ti       0.14602384       1.71226933       8.72142372        0      -0.00002042      -0.00038392       0.00020255
Ti       1.64691598       0.84770224      11.27130021        0      -0.00058075       0.00025884      -0.00060876
O        0.14845042       1.73714594      12.28540796        3      -0.00011272      -0.00004710      -0.00026349
O        1.66336799       0.84108326       7.79209768        1       0.00007220       0.00021187      -0.00006090
C       -1.37152501       2.58674798      10.02136040        2       0.00044418       0.00021514       0.00011645
Ti      -1.37236326       4.34003389       8.71055517        0      -0.00040177       0.00060356      -0.00006621
Ti       0.15205144       3.47564321      11.19245846        0       0.00006479      -0.00017503       0.00068748
O       -1.35862615       4.35494382      12.27972136        3       0.00015820       0.00012006       0.00010707
O        0.14879256       3.46151770       7.78123418        1      -0.00033869      -0.00004632       0.00014965
C       -2.88273169       5.21263914      10.01459241        2       0.00002907      -0.00027441       0.00032377
Ti      -2.88489123       6.96096463       8.72887958        0       0.00004140      -0.00046468       0.00034877
Ti      -1.35728352       6.09041743      11.25843658        0      -0.00064281      -0.00023462       0.00013767
O       -2.88299156       6.93851673      12.30114278        3      -0.00007111       0.00006566       0.00028669
O       -1.36925288       6.08834426       7.77678162        1      -0.00030816       0.00023544       0.00018341
C       -4.39500345       7.83925928      10.01562482        2       0.00022673       0.00005591      -0.00022084
Ti      -4.39366287       9.58929985       8.72709084        0      -0.00032709       0.00022921      -0.00012691
Ti      -2.88277518       8.69122708      11.26744067        0       0.00019702      -0.00061949      -0.00015253
O       -4.40911838       9.57469305      12.33939910        3      -0.00015631       0.00013864      -0.00009119
O       -2.88517824       8.71525943       7.78569570        1       0.00003562       0.00013509      -0.00011886
C        3.17448160      -0.03832326      10.03497865        2       0.00013794       0.00039571       0.00019672
Ti       3.17767345       1.71313875       8.74170080        0      -0.00048946       0.00003559       0.00014619
Ti       4.69736046       0.83261326      11.24914963        0       0.00040250      -0.00052781      -0.00020531
O        3.20370842       1.69958850      12.35316099        3       0.00010096      -0.00017267       0.00051853
O        4.69133019       0.84254659       7.79177198        1       0.00025499       0.00026360      -0.00029135
C        1.66738328       2.58621697      10.02544649        2      -0.00001669       0.00015335      -0.00009748
Ti       1.66752101       4.34011953       8.72030559        0       0.00005575       0.00031804       0.00020250
Ti       3.16878439       3.45474217      11.26497781        0       0.00030607       0.00042711      -0.00003947
O        1.65138506       4.34422153      12.32635637        3       0.00012908       0.00021238       0.00003284
O        3.17922601       3.46042479       7.79374071        1      -0.00003678      -0.00012825      -0.00013068
C        0.14795018       5.21869400      10.00482385        2       0.00028111       0.00004725       0.00020720
Ti       0.14621673       6.96258425       8.70951991        0       0.00011950       0.00025912      -0.00048438
Ti       1.64275550       6.09497099      11.24988109        0       0.00026619       0.00004818      -0.00049904
O        0.14597953       6.97549258      12.28101190        3      -0.00001353       0.00042236       0.00002835
O        1.66472805       6.08705997       7.78134387        1       0.00034075      -0.00007534      -0.00006749
C       -1.37397435       7.83937072      10.01287423        2      -0.00023209       0.00023881      -0.00046244
Ti      -1.37329651       9.58841608       8.72152760        0       0.00059952       0.00011831       0.00035686
Ti       0.14685463       8.71867835      11.18803160        0       0.00042745       0.00063579      -0.00048748
O       -1.37259525       9.57546617      12.34254993        3      -0.00024318       0.00001473       0.00004335
O        0.14716629       8.71829074       7.78118918        1      -0.00004058      -0.00012841      -0.00003409
C        6.20519656      -0.03240894      10.02034304        2      -0.00006398       0.00019361       0.00008535
Ti       6.20424090       1.71585525       8.73075284        0       0.00009943      -0.00016236       0.00018638
Ti       7.70634692       0.84419830      11.27322479        0      -0.00019808       0.00013112       0.00009913
O        6.20043752       1.71890958      12.29090251        3      -0.00014217      -0.00028022      -0.00026905
O        7.72107625       0.84206717       7.79500017        1      -0.00003087       0.00013287      -0.00014709
C        4.68935286       2.58949514      10.03431787        2       0.00050960      -0.00003639      -0.00010884
Ti       4.68896024       4.33600247       8.74059130        0       0.00009158       0.00024372      -0.00000644
Ti       6.23039802       3.47754798      11.24786278        0       0.00014311      -0.00002269       0.00026286
O        4.66619949       4.33706543      12.35438787        3       0.00018958       0.00024668       0.00004129
O        6.20482719       3.46364530       7.79342164        1       0.00029163      -0.00037760       0.00013270
C        3.17631526       5.20932813      10.03065991        2       0.00027170      -0.00013447      -0.00016591
Ti       3.17756795       6.96025131       8.73213908        0      -0.00011199      -0.00024666      -0.00014245
Ti       4.70282292       6.09243126      11.26809650        0      -0.00022382       0.00003404      -0.00011259
O        3.17066124       6.95142108      12.30109738        3      -0.00035460      -0.00007117      -0.00016427
O        4.69092838       6.08460361       7.79047643        1      -0.00004338       0.00021693      -0.00018157
C        1.66306639       7.83774625      10.01501424        2       0.00020888       0.00009598       0.00003841
Ti       1.66565761       9.59061967       8.72628913        0      -0.00038852      -0.00052461       0.00007705
Ti       3.17546485       8.69529520      11.26763346        0       0.00012387      -0.00009401       0.00021624
O        1.65030506       9.57146413      12.33389499        3       0.00033754       0.00014980      -0.00009183
O        3.17737639       8.71364716       7.79100576        1       0.00022501       0.00013255      -0.00038150
C        9.23654934      -0.03535224      10.03956002        2      -0.00011750      -0.00023677      -0.00009140
Ti       9.23507330       1.71057126       8.74332960        0       0.00044574      -0.00021458       0.00009468
Ti      10.76480746       0.84579917      11.27144943        0       0.00030353      -0.00051428      -0.00017020
O        9.23300282       1.69568499      12.33961455        3       0.00010092      -0.00023064       0.00058727
O       10.74949529       0.83939031       7.79319766        1      -0.00012793       0.00001908       0.00016419
C        7.72340887       2.58841602      10.03182053        2      -0.00054646      -0.00012787      -0.00010035
Ti       7.72326882       4.33976170       8.72236275        0      -0.00010334       0.00013761       0.00015252
Ti       9.24049260       3.45652554      11.24703210        0      -0.00023454       0.00053006       0.00053687
O        7.73249956       4.35069054      12.28364034        3      -0.00020092       0.00016063      -0.00010553
O        9.23289885       3.45823403       7.78640949        1      -0.00008822      -0.00001733       0.00005343
C        6.20336297       5.21376480      10.02568995        2      -0.00008300       0.00021606       0.00015929
Ti       6.20378341       6.96188683       8.71622236        0       0.00012033       0.00020691       0.00000673
Ti       7.70737069       6.09433197      11.25693628        0       0.00028811      -0.00070059       0.00053941
O        6.20728839       6.97773464      12.28368708        3       0.00013958      -0.00039157       0.00012868
O        7.71703178       6.08602434       7.78356380        1      -0.00015464       0.00026245       0.00007043
C        4.68690829       7.83623745      10.02147375        2       0.00000220      -0.00004443      -0.00004716
Ti       4.68605115       9.58912910       8.72957065        0       0.00004964      -0.00005644      -0.00010421
Ti       6.20737950       8.72098538      11.19184625        0      -0.00023901       0.00000334       0.00012556
O        4.69397632       9.57294364      12.33980911        3      -0.00044093      -0.00000017       0.00022750
O        6.20437704       8.71500289       7.78715252        1       0.00012576      -0.00009541      -0.00033598
C       -0.16332642       0.02433930      16.93350423       10       0.00000782      -0.00013075       0.00028748
C        1.04803957       0.72022400      16.99621627       10      -0.00005755       0.00008645      -0.00031343
C       -1.36573051       2.11659473      16.72547971       10       0.00011567      -0.00012228      -0.00012333
C       -0.17022345       2.81549354      16.89156046       10       0.00010344       0.00008511      -0.00039185
C       -2.58295279       4.22721928      16.78267742       10      -0.00008167      -0.00004615      -0.00018485
C       -1.37977585       4.91500390      16.92473402       10      -0.00016341      -0.00002788      -0.00002025
C       -3.79670318       6.31616634      16.99008534       10       0.00002803       0.00016403      -0.00008808
C       -2.58649036       7.01710381      17.03999475       10       0.00000552       0.00022484       0.00025964
C       -5.01074456       8.41678878      17.02055890       10       0.00021676      -0.00010252       0.00018506
C       -3.79775578       9.11648424      17.04621544       10       0.00008587       0.00018261       0.00034622
C        2.26167331       0.02084854      17.02496510       10      -0.00002442       0.00019327       0.00019192
C        3.47525560       0.72146601      16.96359724       10       0.00007778      -0.00001277       0.00018404
C        1.04888147       2.11759312      16.97097821       10       0.00012466       0.00005848      -0.00007294
C        2.26093411       2.81840550      16.95357809       10       0.00016019      -0.00003318      -0.00012965
C       -0.16293652       4.21946237      16.92081189       10      -0.00011481       0.00015483      -0.00057162
C        1.04836371       4.91805205      16.94243218       10      -0.00005382       0.00006033      -0.00003492
C       -1.37502452       6.31798276      17.01135522       10      -0.00004217       0.00002925       0.00032694
C       -0.16219881       7.01720011      16.98192618       10       0.00015752      -0.00007161       0.00003190
C       -2.58487228       8.41747803      17.04633880       10       0.00000105       0.00022499      -0.00017630
C       -1.37346213       9.11809854      16.97444703       10      -0.00001837      -0.00000781       0.00033102
C        4.68811186       0.02108814      16.91197906       10       0.00008878      -0.00007464      -0.00023758
C        5.89816421       0.71900317      16.79762552       10       0.00003009       0.00010907       0.00033190
C        3.47480123       2.12093209      16.92163963       10       0.00003573      -0.00010307      -0.00037824
C        4.68873620       2.81819352      16.84160802       10      -0.00005465      -0.00010342       0.00002994
C        2.26164809       4.21767350      16.92260102       10      -0.00011086       0.00000607      -0.00055958
C        3.47551307       4.91736013      16.89133912       10      -0.00005106      -0.00003920       0.00004436
C        1.04951642       6.31859609      16.93728724       10       0.00018700      -0.00004296      -0.00000390
C        2.26122230       7.01963097      16.88621783       10       0.00008720       0.00001730       0.00023937
C       -0.15976670       8.41909545      16.94220940       10      -0.00004370      -0.00004858       0.00028089
C        1.05139210       9.12128616      16.83227487       10      -0.00016847       0.00012419       0.00066457
C        7.10924994       0.02296773      16.74916407       10      -0.00002480       0.00011541      -0.00023494
C        8.32300422       0.72977354      16.65106134       10       0.00008434      -0.00001855       0.00030020
C        5.90170316       2.11789207      16.76645374       10      -0.00007914       0.00004664      -0.00040845
C        7.11965770       2.81873948      16.67500706       10      -0.00003063       0.00008118       0.00009196
C        4.68870276       4.21910417      16.84022771       10      -0.00010885      -0.00014643      -0.00021204
C        5.90332016       4.91695185      16.83548221       10      -0.00008296      -0.00017553       0.00014177
C        3.47470600       6.31923226      16.88251244       10       0.00008331      -0.00004066      -0.00013971
C        4.68789350       7.01817603      16.88945690       10       0.00000049      -0.00000774       0.00015436
C        2.26283724       8.41850840      16.82519427       10      -0.00015057      -0.00002837      -0.00007265
C        3.47478481       9.11959666      16.79700921       10      -0.00001909      -0.00022548      -0.00014947
C        9.53655324       0.02161523      16.71578489       10      -0.00004995      -0.00021421      -0.00002313
C       10.74795563       0.72886486      16.78341569       10       0.00001523      -0.00018745      -0.00033883
C        8.31814316       2.11967483      16.55867218       10      -0.00016179      -0.00005064      -0.00007456
C        9.55729725       2.84265376      16.30338326       10      -0.00010384      -0.00017163       0.00013741
C        7.11284819       4.21917918      16.76505192       10       0.00013826       0.00013894      -0.00012444
C        8.32856926       4.91387872      16.85396539       10       0.00011063       0.00013461       0.00007176
C        5.90025079       6.31653676      16.90413308       10      -0.00018510      -0.00021197       0.00025972
C        7.11155063       7.01525362      16.97849299       10      -0.00014562      -0.00011821       0.00023443
C        4.68557647       8.41891148      16.87856927       10       0.00015880      -0.00003443      -0.00020389
C        5.89687990       9.12076565      16.94982772       10       0.00034061      -0.00015948      -0.00019776
O        9.76353969       3.08749590      14.74571686       11      -0.00017535       0.00035023      -0.00016116
H        9.34245125       2.47775113      14.08699110       12      -0.00024324       0.00019881      -0.00004345
Na      -2.97162190      10.44028516      13.90820326        0      -0.00027580      -0.00041986      -0.00000009
Na       0.07247383       8.47154303      14.00451916        0      -0.00041940      -0.00082455       0.00024073
Na       6.16732644       8.45573281      14.01206198        0      -0.00010962       0.00043818      -0.00023389
Na      -2.96572782       5.19032159      13.90240305        0      -0.00052141       0.00031682      -0.00005315
Na       3.07953693       5.37285291      13.91366799        0      -0.00035988      -0.00025325      -0.00000518
Na      -0.14587719       3.23776172      14.00598201        0      -0.00014900       0.00024863      -0.00002974
Na       5.11198204       2.71298056      13.96205803        0       0.00078203      -0.00012498      -0.00005836
Na       9.21935299      -0.06230305      13.88333241        0       0.00020445      -0.00048813      -0.00042396
