140
Lattice="12.12 0.0 0.0 -6.06 10.496227893867395 0.0 0.0 0.0 40.0" Properties=species:S:1:pos:R:3:tags:I:1:forces:R:3 energy=-1235.5568535552 stress="0.003193953236412136 -5.033017548615638e-09 -8.660447221846326e-08 -5.033017548615638e-09 0.0031940937572872063 7.227219303708374e-08 -8.660447221846326e-08 7.227219303708374e-08 0.0024290570768258015" pbc="T T F"
C       -0.92481138       0.54288859       9.94229264        2      -0.00004257       0.00043315       0.00047925
Ti      -0.92156702       2.29469014       8.65324137        0       0.00015403       0.00021317      -0.00021260
Ti       0.58810564       1.39346327      11.16566483        0       0.00023139       0.00018361      -0.00031334
O       -0.90912361       2.28909707      12.24437169        3      -0.00003480      -0.00009067       0.00027820
O        0.59437350       1.41867914       7.71725205        1      -0.00000993       0.00004378       0.00015467
C       -2.43422359       3.16985265       9.95760237        2      -0.00022742      -0.00022897      -0.00002677
Ti      -2.44053625       4.91668583       8.66548273        0      -0.00023204      -0.00003889       0.00005281
Ti      -0.92568237       4.02328102      11.18584425        0       0.00032144      -0.00005651       0.00015346
O       -2.45353877       4.93248717      12.27774693        3      -0.00031145       0.00013042      -0.00003049
O       -0.92487578       4.04541836       7.72310706        1      -0.00011708      -0.00018293      -0.00038155
C       -3.95604269       5.79144244       9.96217033        2       0.00014202       0.00031249       0.00017311
Ti      -3.95625640       7.54102644       8.66998416        0      -0.00012265       0.00026112       0.00016638
Ti      -2.44482535       6.66276951      11.15671095        0       0.00010840       0.00034631      -0.00033354
O       -3.97307572       7.53278076      12.30428067        3      -0.00008067       0.00005404       0.00040013
O       -2.43839062       6.66726766       7.72537615        1      -0.00021311       0.00022348       0.00000507
C       -5.46885708       8.41638633       9.95926522        2       0.00012713      -0.00020740      -0.00012565
Ti      -5.46933449      10.16045765       8.65315388        0      -0.00006926      -0.00045594       0.00034930
Ti      -3.97034157       9.29973048      11.18585147        0       0.00017313      -0.00033650      -0.00052794
O       -5.48036740      10.15253027      12.24459788        3      -0.00017329       0.00020908       0.00002695
O       -3.95150886       9.28801665       7.72305887        1       0.00003190      -0.00011366      -0.00003008
C        2.10492489       0.53664694       9.95762298        2      -0.00019532       0.00039429       0.00001206
Ti       2.10480060       2.29442334       8.65984896        0      -0.00015023       0.00021362       0.00026977
Ti       3.59872350       1.42448205      11.18237182        0       0.00017151      -0.00002230      -0.00001326
O        2.09121884       2.28340026      12.23600612        3      -0.00000210       0.00013059       0.00019568
O        3.62207314       1.41854234       7.72739128        1       0.00018246      -0.00002602       0.00008036
C        0.58859634       3.16719490       9.95928342        2       0.00017278      -0.00034709      -0.00003285
Ti       0.59037146       4.91479240       8.67008650        0       0.00029157      -0.00041691      -0.00014475
Ti       2.10551646       4.03178635      11.19354153        0      -0.00037773      -0.00032543      -0.00032274
O        0.60588722       4.90447063      12.30447743        3       0.00035494       0.00029986      -0.00008982
O        2.10730091       4.04262111       7.72778335        1      -0.00003306      -0.00001301      -0.00016022
C       -0.92535130       5.78517539       9.96365981        2       0.00014001       0.00037401      -0.00041213
Ti      -0.92480091       7.54041648       8.65387065        0      -0.00023983       0.00021758       0.00026745
Ti       0.59513913       6.66290067      11.15671318        0      -0.00011857      -0.00027948      -0.00053135
O       -0.92487343       7.54044511      12.21514881        3      -0.00013776      -0.00024779      -0.00018400
O        0.58815533       6.66610857       7.72544619        1      -0.00013206       0.00037310      -0.00011911
C       -2.44463263       8.41848998       9.96362416        2       0.00021960      -0.00038025       0.00013247
Ti      -2.43913340      10.16499477       8.66557503        0      -0.00002922      -0.00059656      -0.00024434
Ti      -0.92494021       9.29553465      11.15675424        0       0.00018651       0.00018483      -0.00028963
O       -2.41901117      10.16820471      12.27786153        3       0.00027152       0.00012344       0.00036506
O       -0.92415004       9.28781578       7.72542477        1       0.00002773      -0.00016041      -0.00008954
C        5.13614443       0.54378505       9.96225704        2       0.00014547      -0.00011262       0.00010758
Ti       5.13531799       2.29323014       8.67370474        0      -0.00024689       0.00028883      -0.00017839
Ti       6.65845367       1.42284759      11.19333502        0       0.00008366       0.00030530       0.00051028
O        5.13221570       2.28554733      12.22595377        3       0.00005571       0.00003017      -0.00005101
O        6.64833044       1.41894542       7.72770323        1      -0.00013094       0.00003092      -0.00000336
C        3.61900793       3.16707033       9.96807318        2       0.00012802      -0.00010383      -0.00007553
Ti       3.62093296       4.91585033       8.67375597        0      -0.00012641      -0.00042900       0.00008391
Ti       5.13514905       4.04169840      11.25223592        0       0.00017700      -0.00047170      -0.00015172
O        3.61585582       4.92229075      12.22602459        3      -0.00029746      -0.00009054      -0.00005715
O        5.13516053       4.04171156       7.73454095        1      -0.00013588      -0.00038660       0.00002000
C        2.10542684       5.78977017       9.96231405        2      -0.00006236      -0.00005243       0.00040116
Ti       2.10524032       7.53955371       8.66562603        0       0.00034200       0.00033833      -0.00010762
Ti       3.63684626       6.68085228      11.18255628        0       0.00021637       0.00027931      -0.00049733
O        2.09791490       7.52050262      12.27787510        3      -0.00006546      -0.00030853      -0.00015774
O        3.61997834       6.66365278       7.72745685        1       0.00025566      -0.00013404       0.00005022
C        0.59545490       8.41759395       9.96366857        2       0.00015471      -0.00009997       0.00000275
Ti       0.59145668      10.16540971       8.67003093        0      -0.00000336      -0.00010623      -0.00002145
Ti       2.12149336       9.29817765      11.18581440        0       0.00011757      -0.00000697      -0.00026232
O        0.59282387      10.18418410      12.30464020        3       0.00014377       0.00003537       0.00019953
O        2.10199895       9.28778323       7.72311695        1      -0.00017303      -0.00004519      -0.00007789
C        8.16581768       0.54141184       9.95925929        2      -0.00001121       0.00043098       0.00021885
Ti       8.16360710       2.29082049       8.65980927        0      -0.00024692       0.00045038       0.00005292
Ti       9.70218157       1.42789877      11.16590808        0      -0.00041497       0.00011235      -0.00014325
O        8.17974539       2.28473592      12.23584622        3       0.00014677      -0.00002283      -0.00007274
O        9.67723658       1.42060964       7.71727076        1      -0.00028869       0.00034847       0.00003337
C        6.65068943       3.16593834       9.96793243        2      -0.00005931      -0.00017050       0.00039121
Ti       6.64932688       4.91596138       8.67362779        0       0.00019215      -0.00011225       0.00002452
Ti       8.16995790       4.01966018      11.18216497        0       0.00008930      -0.00038769       0.00050325
O        6.65751668       4.91709430      12.22583189        3      -0.00011352       0.00020687       0.00024216
O        8.16346389       4.04282884       7.72733602        1       0.00003788       0.00005740       0.00017352
C        5.13581926       5.79197759       9.96803403        2      -0.00018367       0.00042455       0.00044729
Ti       5.13723585       7.53968335       8.65993090        0      -0.00028080       0.00037718       0.00001589
Ti       6.64153938       6.67028660      11.19347257        0      -0.00044623       0.00044164       0.00015035
O        5.13454927       7.55685867      12.23590867        3      -0.00029886       0.00009408      -0.00009144
O        6.64993619       6.66343407       7.72771653        1      -0.00004877       0.00015374      -0.00010237
C        3.61490625       8.41846712       9.95772362        2      -0.00009340      -0.00041613      -0.00012959
Ti       3.61644578      10.16603227       8.65326265        0       0.00024298      -0.00008154      -0.00012034
Ti       5.11530540       9.30368607      11.16582414        0       0.00005400      -0.00047135      -0.00038027
O        3.61516037      10.17959158      12.24448267        3      -0.00022509       0.00010959      -0.00000190
O        5.13402910       9.28564016       7.71731397        1      -0.00005799      -0.00028808      -0.00007638
C        1.49850303      -0.85544653      16.99209402       10      -0.00007962       0.00017439      -0.00048227
C        2.70884347      -0.15583264      16.97784331       10       0.00010242       0.00017441       0.00012939
C        0.28763011       1.24175371      17.00070492       10       0.00015262      -0.00000997      -0.00026472
C        1.50057650       1.94130195      16.97543659       10       0.00012050      -0.00011395      -0.00031358
C       -0.92507345       3.33973238      16.99049339       10       0.00002985       0.00009196       0.00022101
C        0.28661172       4.03871642      16.96689674       10       0.00007281       0.00014730       0.00034560
C       -2.13072061       5.44260662      16.92655136       10       0.00004093       0.00008485       0.00000012
C       -0.92451273       6.12855701      16.86972363       10       0.00007416       0.00029862       0.00047116
C       -3.34314443       7.54376109      16.92535172       10      -0.00028241       0.00000658      -0.00034159
C       -2.14660050       8.24589368      16.87081971       10      -0.00011460      -0.00013554       0.00022178
C        3.92248331      -0.86276504      16.92800929       10      -0.00007390      -0.00009335      -0.00046274
C        5.13600616      -0.15802824      16.90839589       10      -0.00001612      -0.00005022       0.00039545
C        2.71220218       1.24155072      16.95738962       10       0.00018153       0.00020488      -0.00036889
C        3.92240455       1.94259881      16.91029497       10      -0.00001526       0.00035690      -0.00054740
C        1.50023723       3.34221529      16.94919989       10      -0.00002826      -0.00011341      -0.00001740
C        2.71212327       4.04042689      16.90539964       10      -0.00010093      -0.00007809      -0.00014717
C        0.28182327       5.44339258      16.92403707       10       0.00005954       0.00012649       0.00004913
C        1.49877186       6.14066196      16.90704747       10       0.00015194      -0.00026810       0.00029947
C       -0.92458134       7.54008079      16.45512612       10      -0.00006328       0.00004787      -0.00031352
C        0.29809032       8.24563809      16.86926218       10       0.00000021      -0.00023124       0.00034337
C        6.34833515      -0.86329877      16.92393778       10       0.00009645      -0.00012208       0.00007934
C        7.56245209      -0.15682842      16.96578836       10      -0.00009755       0.00016920       0.00014859
C        5.13596084       1.24054914      16.90624953       10      -0.00018810       0.00002656      -0.00015303
C        6.34817541       1.94287820      16.90490967       10      -0.00016045       0.00000917      -0.00040500
C        3.92356580       3.34176254      16.88937638       10       0.00002679       0.00025253      -0.00000593
C        5.13564512       4.04128785      16.87226301       10       0.00018831      -0.00014252      -0.00031632
C        2.71000314       5.44140525      16.90503940       10       0.00005109      -0.00015293       0.00009348
C        3.92478142       6.14134223      16.90826462       10       0.00009844      -0.00010277      -0.00019579
C        1.49525941       7.54399618      16.92552259       10       0.00001919      -0.00033761      -0.00025789
C        2.71432440       8.24156311      16.97457194       10      -0.00004448      -0.00017136      -0.00012227
C        8.77363111      -0.85668948      16.98916474       10      -0.00017686      -0.00001586       0.00057120
C        9.98463629      -0.15667797      17.00042613       10      -0.00010078      -0.00004410       0.00024225
C        7.55881454       1.24245008      16.94775711       10      -0.00010258       0.00013212       0.00030092
C        8.77187559       1.94319043      16.97323291       10       0.00006123      -0.00016547      -0.00033035
C        6.34748834       3.34134742      16.88855697       10       0.00013574      -0.00006255      -0.00019657
C        7.55979428       4.03991155      16.90855646       10       0.00007705      -0.00007008       0.00014186
C        5.13590977       5.44075293      16.88833492       10       0.00004123      -0.00027878       0.00001862
C        6.34669089       6.14056652      16.90479910       10      -0.00006610      -0.00013608       0.00008229
C        3.92278071       7.53994419      16.95449394       10       0.00015866      -0.00000560       0.00034007
C        5.13457825       8.23936378      16.97359857       10       0.00008621       0.00023219      -0.00020076
C       11.19524902      -0.85666128      16.99956511       10      -0.00001544       0.00016007      -0.00001418
C       12.40676832      -0.15666816      17.00220376       10      -0.00002351       0.00010735       0.00012925
C        9.98414478       1.24251821      16.99916049       10       0.00017260      -0.00008216      -0.00003328
C       11.19563921       1.94095454      17.00143156       10       0.00024954       0.00004138      -0.00035926
C        8.77202931       3.34234851      16.95503658       10      -0.00002120      -0.00017391      -0.00000096
C        9.98387835       4.03809384      16.97558255       10      -0.00010821       0.00000797       0.00014537
C        7.56102745       5.44191192      16.90540735       10       0.00001242      -0.00001367       0.00020645
C        8.77221459       6.14123617      16.90799520       10      -0.00007023       0.00004849       0.00015357
C        6.34798371       7.53919203      16.94865968       10      -0.00009629      -0.00009299       0.00021301
C        7.55798087       8.24194733      16.96788831       10      -0.00023984       0.00007370      -0.00027116
O       -0.92548468       7.54017962      15.01128774       11       0.00037531       0.00010027       0.00015677
Na      -0.92239268       5.68524250      13.81172223        0       0.00003786      -0.00021621       0.00025957
Na       2.58097305       5.82803744      13.94083280        0       0.00062432      -0.00012433       0.00021234
Na       7.95892871       5.35649834      13.94168105        0       0.00023265       0.00002059       0.00021395
Na      -2.53305451       8.46531373      13.81183786        0       0.00007089       0.00018582      -0.00007436
Na       0.63380766       2.52186667      13.95119188        0       0.00008716       0.00000475       0.00012066
Na       0.67958894       8.47002015      13.81170590        0       0.00010990      -0.00030783      -0.00027711
Na       4.86268507       0.93817054      13.94164714        0      -0.00049836       0.00010989      -0.00017066
Na       6.07151224       8.69797159      13.95079693        0      -0.00047048      -0.00013619       0.00005327
Na       8.69620584       0.90050174      13.94979315        0       0.00042558       0.00023997       0.00046935
