5
Lattice="3.03 0.0 0.0 -1.515 2.624056973466849 0.0 0.0 0.0 50.0" Properties=species:S:1:pos:R:3:tags:I:1:forces:R:3 energy=-45.962222714177216 stress="0.003016835399118199 5.228739463094464e-17 6.306190035412071e-17 5.228739463094464e-17 0.0030168359369930637 -3.1888325938454673e-09 6.306190035412071e-17 -3.1888325938454673e-09 0.001046093637156276" pbc="T T F"
C        0.00000000       0.00000000      10.00000000        2      -0.00000000       0.00000002       0.00000000
Ti       0.00000000       1.74937163       8.70931758        0      -0.00000000       0.00000002      -0.00000485
Ti       1.51500000       0.87468533      11.29068242        0       0.00000000       0.00000016       0.00000485
O        0.00000000       1.74937084      12.23008024        3      -0.00000000       0.00000213      -0.00001820
O        1.51500000       0.87468615       7.76991976        1       0.00000000      -0.00000233       0.00001820
