132
Lattice="12.12 0.0 0.0 -6.06 10.496227893867395 0.0 0.0 0.0 40.0" Properties=species:S:1:pos:R:3:tags:I:1:forces:R:3 energy=-1209.6709582711421 stress="0.002805113290289566 3.6464224729699237e-07 9.68910684499494e-07 3.6464224729699237e-07 0.0028032818323621023 2.7397528510794858e-06 9.68910684499494e-07 2.7397528510794858e-06 0.0021275818846686403" pbc="T T F"
C        0.00192278       0.00324440      10.00123503        2       0.00408269       0.00032991      -0.00290752
Ti       0.00132142       1.75245274       8.69434104        0       0.00078846       0.00083149       0.00134984
Ti       1.51384558       0.88005470      11.31067899        0      -0.00123191       0.00046983      -0.00191798
O       -0.00022737       1.75377006      12.23159545        3       0.00151444      -0.00094157       0.06403933
O        1.51374016       0.88025608       7.77130864        1       0.00093520      -0.00004633       0.00068054
C       -1.51612254       2.62985982      10.01203394        2       0.00023610       0.00079798      -0.00322479
Ti      -1.51607279       4.37996576       8.69401011        0       0.00354862       0.00164188       0.00313573
Ti      -0.00346085       3.50374429      11.31592937        0       0.00270479      -0.00038100       0.00033632
O       -1.51521748       4.38092429      12.23159545        3       0.00144157      -0.00059204       0.01059275
O       -0.00265908       3.50301543       7.77686590        1       0.00239494       0.00044258      -0.00498235
C       -3.03088791       5.25516006      10.00527114        2       0.00218805       0.00298615      -0.00546523
Ti      -3.03086348       7.00368333       8.69306495        0      -0.00172654      -0.00305704       0.00404634
Ti      -1.51547976       6.12639516      11.31706028        0      -0.00265554       0.00494013      -0.00492531
O       -3.02971097       7.00223511      12.23159545        3      -0.00153143      -0.00014425       0.10273011
O       -1.51592046       6.12638485       7.77408945        1       0.00063193       0.00279605      -0.00275882
C       -4.54590329       7.87701360      10.00326425        2      -0.00162336       0.00061196       0.00032490
Ti      -4.54513776       9.62540949       8.69060440        0      -0.00185480       0.00068722       0.00225855
Ti      -3.03080022       8.75250098      11.30853818        0       0.00096495      -0.00017026       0.00237886
O       -4.54632429       9.62579834      12.23159545        3       0.00073256      -0.00032571       0.06590438
O       -3.03092627       8.75045906       7.76917814        1       0.00086387       0.00414969      -0.00028624
C        3.02939598       0.00415496      10.00289448        2      -0.00052369       0.00150732       0.00224779
Ti       3.02989597       1.75468881       8.69399879        0      -0.00127440       0.00227521       0.00066180
Ti       4.54508727       0.87939152      11.30919933        0       0.00077535      -0.00155827       0.00281926
O        3.03062518       1.75407914      12.23159545        3      -0.00022258       0.00058934       0.06601221
O        4.54466413       0.87997867       7.77046150        1      -0.00233188      -0.00127606       0.00131129
C        1.51547386       2.62840346      10.00429100        2       0.00131411      -0.00268005      -0.00270151
Ti       1.51449845       4.37830699       8.69508870        0      -0.00246277      -0.00088014       0.00179831
Ti       3.02929677       3.50344847      11.30864602        0      -0.00125321       0.00187268       0.00099045
O        1.51294539       4.37885139      12.23159545        3      -0.00016146      -0.00034159       0.08903917
O        3.02862216       3.50370353       7.77227114        1       0.00025630       0.00277954      -0.00103139
C       -0.00004563       5.25361973      10.00498157        2      -0.00330975       0.00096119      -0.00062970
Ti      -0.00008810       7.00280435       8.69470330        0      -0.00024953      -0.00151747       0.00139390
Ti       1.51413166       6.12756314      11.30890720        0       0.00475009      -0.00153224      -0.00003063
O        0.00016818       7.00444175      12.23159545        3      -0.00055114      -0.00017303       0.11443633
O        1.51396122       6.12675543       7.77248148        1       0.00003384      -0.00031125      -0.00080016
C       -1.51606829       7.87681876      10.00320518        2       0.00019010       0.00142411       0.00082809
Ti      -1.51615612       9.62584394       8.69219566        0       0.00106260       0.00012969      -0.00131090
Ti      -0.00009114       8.75273137      11.30847514        0      -0.00068874       0.00161290       0.00295991
O       -1.51439480       9.62574358      12.23159545        3       0.00018523       0.00012908       0.08683082
O       -0.00075334       8.75116211       7.77006158        1      -0.00033470       0.00004446       0.00091616
C        6.05717448       0.00363546      10.00079740        2      -0.00012612       0.00057622       0.00074302
Ti       6.05785757       1.75323180       8.69300154        0       0.00035396       0.00252093       0.00181453
Ti       7.57642594       0.88093937      11.30518911        0      -0.00080133       0.00251909      -0.00415485
O        6.06078433       1.75304458      12.23159545        3      -0.00198313       0.00232155       0.12933926
O        7.57548893       0.88095496       7.77309598        1      -0.00161399      -0.00115828      -0.00345078
C        4.54525604       2.62840009      10.00383605        2      -0.00167581       0.00132815       0.00028746
Ti       4.54434899       4.37840055       8.69332359        0       0.00253324      -0.00204047       0.00150817
Ti       6.06134013       3.50238126      11.31331792        0      -0.00170601       0.00106353      -0.00126069
O        4.54599908       4.37807127      12.23159545        3      -0.00181731       0.00029039       0.11182311
O        6.06109929       3.50332762       7.77410396        1      -0.00165693       0.00009936      -0.00221538
C        3.02959802       5.25306815      10.00446112        2       0.00055269       0.00095218      -0.00103157
Ti       3.02891070       7.00269134       8.69229617        0      -0.00130618       0.00201300       0.00136324
Ti       4.54372634       6.12730727      11.30880249        0      -0.00350527       0.00082923      -0.00023198
O        3.02805840       7.00335233      12.23159545        3      -0.00105285       0.00046334       0.09239319
O        4.54350374       6.12731131       7.77132828        1       0.00028303       0.00116730      -0.00174754
C        1.51421221       7.87818930      10.00261205        2       0.00173634      -0.00095967       0.00102955
Ti       1.51255875       9.62571848       8.69151425        0       0.00050624       0.00019468       0.00044319
Ti       3.02979332       8.75436290      11.30964527        0       0.00258915      -0.00260144       0.00052924
O        1.51251119       9.62684494      12.23159545        3      -0.00029623      -0.00222138       0.10123060
O        3.02918862       8.75285336       7.77176209        1       0.00177788       0.00061471      -0.00029667
C        9.08863889       0.00514872      10.00495972        2      -0.00185894       0.00275030      -0.00082624
Ti       9.08855193       1.75407054       8.69407110        0       0.00140642      -0.00190861       0.00506400
Ti      10.60418370       0.88272120      11.29928276        0      -0.00090162       0.00131345      -0.00108155
O        9.09077090       1.75487642      12.23159545        3       0.00083973      -0.00224990       0.12514236
O       10.60371350       0.88192726       7.77432652        1       0.00133674      -0.00156010      -0.00605108
C        7.57432159       2.62877947      10.00720951        2       0.00007011      -0.00114476      -0.00512757
Ti       7.57423646       4.37941856       8.69467164        0      -0.00197551       0.00224640       0.00272399
Ti       9.08799353       3.50717873      11.30650753        0       0.00200379      -0.00178922       0.00272208
O        7.57176136       4.38074079      12.23159545        3      -0.00052627       0.00052418       0.06883189
O        9.09031327       3.50325656       7.77549786        1      -0.00026839       0.00002939      -0.00593564
C        6.05818000       5.25366051      10.00229208        2       0.00044005       0.00025014       0.00322765
Ti       6.05831349       7.00150202       8.69308231        0       0.00378070       0.00062597       0.00220688
Ti       7.57423860       6.12875984      11.31125368        0       0.00023754      -0.00028292      -0.00144312
O        6.05848727       7.00182596      12.23159545        3       0.00073603       0.00188935       0.07641791
O        7.57468799       6.12649668       7.77280056        1       0.00035003       0.00326309      -0.00177153
C        4.54368652       7.87792171      10.00315415        2       0.00071672       0.00018147       0.00019143
Ti       4.54506848       9.62627392       8.69225476        0       0.00171857       0.00143239       0.00240680
Ti       6.05733478       8.75300380      11.30921874        0       0.00028872       0.00242252       0.00074477
O        4.54380773       9.62933761      12.23159545        3       0.00150882       0.00078009       0.07562107
O        6.05874705       8.75177271       7.77064941        1      -0.00031640      -0.00107886      -0.00029249
C        0.06108379       0.06646685      17.27934846       10       0.00407532       0.00051995      -0.00375000
C        1.26721786       0.77104949      17.28773669       10      -0.00216599      -0.00315448       0.00915184
C       -1.13154740       2.15569815      17.25497779       10      -0.00315938      -0.00153400       0.36028681
C        0.05566108       2.86864803      17.26261653       10      -0.00566655      -0.00192157       0.01891665
C       -2.37300020       4.30660566      17.25497224       10       0.00122125      -0.00023175       0.50642640
C       -1.16115676       4.97817069      17.26261397       10       0.00031828      -0.00157888      -0.04380706
C       -3.58574793       6.38046759      17.27934791       10       0.00182195      -0.00279956      -0.02973585
C       -2.37261318       7.07468095      17.28773649       10      -0.00015178      -0.00166780      -0.02779426
C       -4.79583333       8.46977230      17.27745552       10       0.00195147       0.00081586      -0.01096258
C       -3.58399213       9.17002821      17.28874518       10      -0.00342432      -0.00471181      -0.01390025
C        2.47834777       0.07164315      17.28977020       10      -0.00005563      -0.00153029      -0.00230264
C        3.68729706       0.77222875      17.28874509       10       0.00048945      -0.00183295      -0.03662383
C        1.27184655       2.16736008      17.27934867       10      -0.00287935      -0.00090296      -0.00021292
C        2.47716332       2.87207576      17.27028854       10      -0.00009686      -0.00117345      -0.02444959
C        0.05415293       4.27370903      17.23648865       10       0.00068253      -0.00244395      -0.03414293
C        1.26153188       4.97094887      17.24815860       10       0.00129961      -0.00386331      -0.04277497
C       -1.16059507       6.38082045      17.27934791       10       0.00001289      -0.00128742      -0.01726942
C        0.05181800       7.07258392      17.27028864       10      -0.00060442       0.00060062      -0.02500629
C       -2.37289742       8.47315863      17.28977041       10       0.00183457       0.00023240      -0.01902495
C       -1.16137585       9.16976240      17.28874518       10       0.00290996       0.00015407      -0.03789629
C        4.89614304       0.07167484      17.28977020       10      -0.00046682      -0.00051610      -0.02112216
C        6.10705400       0.77080659      17.28773669       10      -0.00121383      -0.00278307      -0.00460327
C        3.68732191       2.17142921      17.27745539       10       0.00094597      -0.00092239      -0.01338949
C        4.89702727       2.87170242      17.27028854       10      -0.00026112       0.00129336      -0.00954551
C        2.47544459       4.27029284      17.25640504       10       0.00238409      -0.00078595      -0.03417729
C        3.68713754       4.97126547      17.25361718       10      -0.00102803       0.00290526      -0.02338097
C        1.26193564       6.37143104      17.25640494       10      -0.00185700      -0.00342150      -0.01069586
C        2.47447834       7.07039794      17.25361707       10      -0.00062720      -0.00248533      -0.04031925
C        0.04970752       8.47012677      17.27745552       10       0.00187929       0.00114231      -0.01365595
C        1.26109010       9.16656528      17.27028839       10       0.00189597      -0.00256660      -0.02087172
C        7.31251558       0.06656267      17.27934846       10      -0.00148872      -0.00212527      -0.03097881
C        8.52689936       0.76922158      17.26261634       10      -0.00066554      -0.00028680       0.00926987
C        6.10230553       2.16748881      17.27934867       10      -0.00017834      -0.00141374      -0.02235303
C        7.31830067       2.86819344      17.26261653       10      -0.00004660      -0.00127697       0.00969405
C        4.89978939       4.26977945      17.25640504       10      -0.00418777       0.00130081      -0.03727677
C        6.11247537       4.97035098      17.24815860       10      -0.00257738      -0.00162059      -0.02035296
C        3.68690552       6.37028604      17.25053918       10       0.00272322       0.00182598      -0.03693443
C        4.89842165       7.07009396      17.25361707       10       0.00507175      -0.00089311      -0.03555839
C        2.47312680       8.47011550      17.25640477       10      -0.00012151      -0.00168702      -0.00941963
C        3.68672704       9.16991814      17.24815819       10      -0.00116407       0.00115800      -0.02091105
C        9.74696317       0.06834013      17.23648860       10       0.00375328       0.00471509      -0.05366822
C       10.96676195       0.76997306      17.26261634       10      -0.00266502      -0.00086632       0.03648731
C        8.50456320       2.15534039      17.25497779       10       0.00045120       0.00002365       0.36144275
C        9.74637451       2.86956351      17.01061853       10      -0.00193243       0.00045030      -1.73466566
C        7.31967960       4.27347149      17.23648865       10      -0.00226177      -0.00175321      -0.04692454
C        8.53575856       4.97794737      17.26261397       10      -0.00178669      -0.00254894      -0.01822366
C        6.11178436       6.37085805      17.25640494       10       0.00610985      -0.00177548      -0.02295080
C        7.32211517       7.07211401      17.27028864       10       0.00271640       0.00161277      -0.03176408
C        4.90073223       8.46984747      17.25640477       10      -0.00048227       0.00086008      -0.00605999
C        6.11263871       9.16690141      17.27028839       10      -0.00800985      -0.00287702       0.01196649
O        9.74762400       2.95174607      15.46034144       11      -0.00460281       0.00561643      -0.00535627
H        9.69167943       2.05629377      15.07217171       12       0.00129415       0.00426378       0.00323408
