131
Lattice="12.12 0.0 0.0 -6.06 10.496227893867395 0.0 0.0 0.0 40.0" Properties=species:S:1:pos:R:3:tags:I:1:forces:R:3 energy=-1205.3988707665562 stress="0.0028626648312865583 -9.757305854039722e-07 3.2948138554049e-06 -9.757305854039722e-07 0.002861075148062298 -2.9796721908158627e-06 3.2948138554049e-06 -2.9796721908158627e-06 0.002222324377446941" pbc="T T F"
C       -0.00148923       0.00086196      10.00333991        2       0.00008560      -0.00019165       0.00082953
Ti       0.00087156       1.74869269       8.69090604        0       0.00025071      -0.00021565       0.00106080
Ti       1.51727199       0.87592507      11.30997504        0       0.00125985      -0.00156901       0.00019818
O        0.00034215       1.75149817      12.23159545        3      -0.00027393       0.00029274       0.03364911
O        1.51710779       0.87105839       7.77451204        1       0.00069911      -0.00063113       0.00038914
C       -1.51445263       2.62289844      10.00059279        2       0.00044656      -0.00069706       0.00034652
Ti      -1.51470420       4.37469333       8.69292234        0       0.00039558      -0.00069744       0.00132388
Ti       0.00008287       3.49930129      11.30569518        0       0.00152643      -0.00004292      -0.00280278
O       -1.51484726       4.37341438      12.23159545        3       0.00065908      -0.00207044       0.00815396
O       -0.00093539       3.49835103       7.76821783        1       0.00030544      -0.00034354      -0.00078881
C       -3.03002574       5.24549549      10.00285756        2       0.00037510      -0.00101817       0.00088039
Ti      -3.03153033       6.99599958       8.70342822        0       0.00054655      -0.00052312       0.00237963
Ti      -1.51251675       6.12552166      11.31741063        0      -0.00051347       0.00112061       0.00141234
O       -3.03506611       6.98472879      12.23159545        3       0.00049834      -0.00212679      -0.09345828
O       -1.51619235       6.12727404       7.77717342        1       0.00014968      -0.00020420       0.00089696
C       -4.54565382       7.87145332      10.01307694        2       0.00008206      -0.00047813       0.00146821
Ti      -4.54528114       9.62143981       8.70249990        0       0.00009801      -0.00011110       0.00193136
Ti      -3.02218101       8.74324751      11.35929367        0       0.00216796      -0.00100852       0.00179522
O       -4.55171785       9.62426154      12.23159545        3      -0.00165093       0.00075353      -0.00696480
O       -3.02862557       8.74623504       7.78563419        1       0.00031405      -0.00034099       0.00218104
C        3.03020931       0.00064999      10.01446053        2       0.00029278      -0.00007630       0.00130073
Ti       3.02947777       1.74915135       8.69722632        0       0.00086708      -0.00027067       0.00135338
Ti       4.54508607       0.87902362      11.30940029        0       0.00051091      -0.00354892       0.00190764
O        3.03025037       1.75313407      12.23159545        3       0.00069571      -0.00006036       0.03109327
O        4.54332679       0.87090599       7.77529555        1       0.00037960      -0.00129400       0.00067537
C        1.51413783       2.62492980      10.00117753        2       0.00076684      -0.00011831       0.00119476
Ti       1.51399756       4.37276366       8.69047374        0       0.00064733       0.00000059       0.00120224
Ti       3.03070414       3.49935258      11.30430521        0       0.00071870      -0.00051946      -0.00318545
O        1.51658281       4.37149019      12.23159545        3       0.00115193      -0.00047603      -0.00273317
O        3.02968413       3.49590229       7.76846208        1       0.00020542      -0.00087699      -0.00119412
C        0.00240713       5.24571726      10.00088975        2       0.00097748      -0.00074274       0.00092757
Ti       0.00210766       6.99619846       8.69838177        0      -0.00008991      -0.00004320       0.00205731
Ti       1.51927046       6.12004431      11.30412465        0      -0.00031517      -0.00003196      -0.00197353
O        0.00881826       6.99145026      12.23159545        3       0.00148794      -0.00102580      -0.04488303
O        1.51218248       6.12445268       7.76916335        1      -0.00046225       0.00013325      -0.00020614
C       -1.51489452       7.87195576      10.02429335        2       0.00066883      -0.00056683       0.00087836
Ti      -1.51430676       9.62343227       8.70409905        0       0.00044249      -0.00042378       0.00229693
Ti      -0.00100004       8.74307521      11.31838189        0      -0.00177550       0.00000217       0.00151766
O       -1.50595456       9.63179837      12.23159545        3       0.00187298       0.00033784      -0.11430315
O       -0.00446121       8.74575288       7.77742479        1       0.00005686      -0.00012615       0.00093625
C        6.06192396       0.00095843      10.00374006        2       0.00102526      -0.00004141       0.00093151
Ti       6.06011094       1.74862454       8.69213451        0       0.00012768      -0.00002709       0.00126007
Ti       7.57547706       0.87443360      11.30291679        0       0.00002094      -0.00050223      -0.00279200
O        6.06190890       1.75052789      12.23159545        3       0.00120935       0.00063096      -0.02676283
O        7.57432169       0.87329484       7.76875062        1       0.00016536      -0.00031093      -0.00097093
C        4.54536360       2.62617504      10.00087623        2       0.00034290       0.00017184      -0.00003611
Ti       4.54502852       4.37340509       8.68808408        0       0.00048103      -0.00050328       0.00160074
Ti       6.06011981       3.49840189      11.30459745        0      -0.00063516       0.00031441      -0.00413093
O        4.54467770       4.37339678      12.23159545        3       0.00012394      -0.00024513      -0.03369489
O        6.06087381       3.49798511       7.76783934        1       0.00069362      -0.00054101      -0.00161804
C        3.03022910       5.24782141      10.00007050        2       0.00026044      -0.00028165       0.00026102
Ti       3.03007777       6.99867699       8.69053244        0       0.00009863      -0.00068865       0.00134414
Ti       4.54425467       6.12161849      11.30400103        0       0.00056122      -0.00071310      -0.00329367
O        3.03227163       6.99687439      12.23159545        3       0.00084281      -0.00102421      -0.02036751
O        4.54715113       6.12443840       7.76852132        1       0.00068420       0.00009190      -0.00129885
C        1.51814442       7.87116992      10.00130310        2       0.00111382      -0.00063441       0.00088047
Ti       1.51397429       9.62062775       8.69348612        0       0.00055624      -0.00016165       0.00136001
Ti       3.02951682       8.74648327      11.30569082        0       0.00070094      -0.00156176      -0.00284044
O        1.51479587       9.62146257      12.23159545        3       0.00205701       0.00017607      -0.00549653
O        3.02963411       8.74787538       7.76839058        1       0.00032714      -0.00013700      -0.00070751
C        9.09122099       0.00019912      10.00061121        2       0.00071615      -0.00029732       0.00060047
Ti       9.09037460       1.74903577       8.68833501        0       0.00036804      -0.00026699       0.00097645
Ti      10.60571943       0.87445286      11.30467569        0       0.00066916      -0.00044112      -0.00367615
O        9.09048401       1.74898985      12.23159545        3       0.00078774      -0.00051705      -0.00212906
O       10.60604884       0.87409448       7.76770920        1       0.00039254      -0.00034364      -0.00129780
C        7.57635760       2.62313016       9.99977340        2       0.00032329      -0.00030717       0.00065581
Ti       7.57575834       4.37346073       8.69160656        0      -0.00001875      -0.00033712       0.00124525
Ti       9.09063866       3.49853776      11.30263852        0       0.00026045       0.00018448      -0.00291818
O        7.57504242       4.37047335      12.23159545        3      -0.00009781      -0.00141467      -0.04233609
O        9.09083860       3.49969587       7.76835287        1       0.00022008      -0.00016535      -0.00107680
C        6.05844263       5.24653073      10.00104514        2      -0.00005210      -0.00043614       0.00011925
Ti       6.06027329       6.99820785       8.69720837        0       0.00047218      -0.00075574       0.00127792
Ti       7.57033386       6.11978503      11.30795712        0       0.00294045       0.00090778       0.00149909
O        6.05631309       6.99514850      12.23159545        3       0.00025521      -0.00072967       0.02069808
O        7.57735177       6.12590538       7.77464148        1       0.00108706       0.00013836       0.00059782
C        4.54357392       7.87250323      10.00125609        2       0.00035867      -0.00076325       0.00122516
Ti       4.54585459       9.62124027       8.69089404        0       0.00028577      -0.00023599       0.00108017
Ti       6.05926474       8.74389376      11.30973457        0       0.00197717      -0.00026731       0.00014731
O        4.54387474       9.62039065      12.23159545        3      -0.00034645      -0.00036268       0.02467303
O        6.06397653       8.74699097       7.77426446        1       0.00081105      -0.00043782       0.00037833
C        0.04041146       0.07049884      16.82237840       10      -0.00256869       0.00029921       0.01809386
C        1.24862025       0.77098681      16.80708635       10       0.00309829       0.00013723       0.00390191
C       -1.16935001       2.16805377      16.82769910       10      -0.00162592       0.00069460       0.02023103
C        0.04208026       2.86762341      16.80998867       10      -0.00120432      -0.00020983       0.01197100
C       -2.38056681       4.26513840      16.82237840       10      -0.00172511      -0.00127154       0.01754947
C       -1.17043844       4.96121151      16.80708635       10      -0.00139256       0.00085302       0.00934001
C       -3.58693652       6.36864997      16.75926765       10      -0.00077980       0.00019834       0.05449551
C       -2.38153203       7.05011742      16.71744543       10      -0.00083859       0.00305801      -0.16438565
C       -4.80161803       8.47113436      16.75926765       10      -0.00316250      -0.00012275       0.06595190
C       -3.60892059       9.17491777      16.71744543       10       0.00365786       0.00016583      -0.17331080
C        2.46413206       0.06375963      16.75926765       10       0.00128173      -0.00235458       0.06623024
C        3.67845454       0.76867805      16.72718897       10      -0.00090149       0.00075857      -0.02065715
C        1.25398503       2.16877834      16.79604338       10      -0.00092603      -0.00050586       0.01936436
C        2.46584450       2.86644146      16.77412897       10      -0.00173573       0.00137280       0.01588856
C        0.04287014       4.26696998      16.79604338       10      -0.00137583       0.00040819       0.02146052
C        1.25341177       4.96644185      16.77412897       10      -0.00096842       0.00066492       0.00087539
C       -1.17529608       6.36821681      16.75926765       10      -0.00251283       0.00137695       0.04033504
C        0.04248080       7.06670685      16.72718897       10      -0.00119771      -0.00036870      -0.00025299
C       -2.38239480       8.46699452      16.26463977       10      -0.00019406       0.00113489       0.01254329
C       -1.15506528       9.17449335      16.71744543       10      -0.00128908      -0.00000471      -0.15164338
C        4.89224367       0.06302002      16.75926765       10      -0.00058589       0.00018087       0.05764650
C        6.10850632       0.77034333      16.80708635       10      -0.00038293       0.00100482       0.02826288
C        3.67853166       2.16433965      16.75952268       10      -0.00142339       0.00130971       0.00218421
C        4.89212985       2.86639048      16.77412897       10      -0.00066061       0.00146199       0.01023511
C        2.46664723       4.26731495      16.77144736       10      -0.00131002       0.00128755       0.00222963
C        3.67925143       4.96691603      16.76644659       10      -0.00184854       0.00125451       0.00456209
C        1.25156128       6.36851074      16.75952268       10      -0.00054624       0.00082215      -0.01471974
C        2.46685677       7.06780432      16.77412897       10      -0.00064616       0.00141915       0.00487111
C        0.03849354       8.47078345      16.75926765       10      -0.00077353      -0.00012910       0.03955655
C        1.25944801       9.16987731      16.80708635       10      -0.00054465       0.00190294       0.01110873
C        7.31717560       0.06978419      16.82237840       10       0.00142166       0.00240540       0.01705059
C        8.52947746       0.77016083      16.82931692       10       0.00121219       0.00270283       0.02601238
C        6.10346188       2.16772321      16.79604338       10       0.00010463       0.00094840       0.00566313
C        7.31577690       2.86751332      16.80998867       10       0.00025565       0.00034607       0.01265265
C        4.89085203       4.26746196      16.77144736       10      -0.00207078       0.00184103       0.00591295
C        6.10501458       4.96703442      16.77412897       10      -0.00216015       0.00112899       0.00490752
C        3.67896261       6.36689947      16.77144736       10      -0.00169343       0.00056956       0.00150688
C        4.89185776       7.06822956      16.77412897       10      -0.00165404       0.00004976       0.01487043
C        2.46729819       8.46612767      16.79604338       10      -0.00022272       0.00145642       0.01477807
C        3.67893323       9.16651172      16.80998867       10      -0.00047926       0.00153701       0.01673814
C        9.73900827       0.06934533      16.82769910       10      -0.00176907      -0.00034434       0.02318531
C       10.94816679       0.77036468      16.82931692       10       0.00265021       0.00118315       0.01387452
C        8.52780780       2.16764255      16.82769910       10      -0.00000515       0.00073210       0.01633094
C        9.73892636       2.86510246      16.82931692       10      -0.00010610      -0.00117991       0.02903028
C        7.31557177       4.26712564      16.79604338       10      -0.00270399      -0.00006979       0.00976757
C        8.52844731       4.96157647      16.80708635       10      -0.00037446      -0.00147050       0.02356931
C        6.10621705       6.36922126      16.75952268       10      -0.00180244       0.00072832      -0.00321842
C        7.31495646       7.06699758      16.72718897       10      -0.00048722      -0.00067955      -0.01345548
C        4.89015870       8.46661884      16.79604338       10      -0.00202651      -0.00079283       0.01888491
C        6.09804665       9.16998907      16.80708635       10       0.00214636       0.00199080       0.00989296
O       -2.37964051       8.47112579      14.94176742       11      -0.00384170       0.00278527      -0.00098610
