130
Lattice="12.12 0.0 0.0 -6.06 10.496227893867395 0.0 0.0 0.0 40.0" Properties=species:S:1:pos:R:3:tags:I:1:forces:R:3 energy=-1200.1123118113658 stress="0.002847556440628866 3.67305128144764e-08 -3.829885375023328e-09 3.67305128144764e-08 0.002847493301225708 -7.669779644044417e-08 -3.829885375023328e-09 -7.669779644044417e-08 0.001919350079875605" pbc="T T F"
C        0.00000409       0.00000550      10.00063202        2       0.00000831      -0.00000415       0.00052450
Ti      -0.00000018       1.74938557       8.70995435        0      -0.00000617       0.00001182       0.00065123
Ti       1.51494186       0.87466522      11.29080866        0      -0.00005169      -0.00002315       0.00042053
O        0.00003861       1.74913077      12.23008024        3       0.00000696      -0.00000961       0.06654530
O        1.51503677       0.87469531       7.77046283        1       0.00003684       0.00000671       0.00083318
C       -1.51497957       2.62405583      10.00080804        2       0.00002616      -0.00001360       0.00060079
Ti      -1.51500047       4.37344346       8.71004926        0      -0.00001732       0.00000895       0.00089220
Ti      -0.00001850       3.49875200      11.29093359        0      -0.00001366      -0.00005543       0.00049332
O       -1.51496085       4.37340228      12.23008024        3       0.00002267      -0.00004079       0.07852149
O        0.00000024       3.49878865       7.77049472        1       0.00000458       0.00009206       0.00092887
C       -3.03000434       5.24809862      10.00088493        2       0.00000977      -0.00000125       0.00075134
Ti      -3.02998494       6.99747563       8.71006768        0      -0.00000039      -0.00002106       0.00094415
Ti      -1.51500807       6.12277372      11.29103614        0      -0.00001364      -0.00000542       0.00060016
O       -3.02994897       6.99737292      12.23008024        3      -0.00002288       0.00004255       0.07880799
O       -1.51498149       6.12281848       7.77055266        1       0.00002915       0.00003116       0.00109820
C       -4.54498874       7.87219407      10.00085751        2      -0.00001373       0.00000185       0.00063469
Ti      -4.54498790       9.62153485       8.70996869        0       0.00000878      -0.00001603       0.00069906
Ti      -3.03000529       8.74682495      11.29096416        0      -0.00005992       0.00001025       0.00053378
O       -4.54526068       9.62179555      12.23008024        3      -0.00001679      -0.00001213       0.06937577
O       -3.02996282       8.74683362       7.77051232        1       0.00008833      -0.00005064       0.00099249
C        3.02997191      -0.00002934      10.00083384        2      -0.00004015      -0.00000012       0.00061442
Ti       3.02999609       1.74936948       8.71002022        0       0.00002366       0.00000472       0.00084494
Ti       4.54492725       0.87467853      11.29098277        0      -0.00004919      -0.00001886       0.00058928
O        3.02942401       1.74909958      12.23008024        3      -0.00002176      -0.00000763       0.08120911
O        4.54501660       0.87469267       7.77054208        1       0.00006380      -0.00001658       0.00110422
C        1.51496933       2.62404679      10.00079636        2      -0.00002751      -0.00001798       0.00059945
Ti       1.51499907       4.37344260       8.71005436        0       0.00001191       0.00001422       0.00090123
Ti       3.02995014       3.49869509      11.29097349        0      -0.00004026      -0.00004146       0.00056069
O        1.51487879       4.37326840      12.23008024        3      -0.00000106       0.00001001       0.07893137
O        3.03002194       3.49874888       7.77053662        1       0.00002999       0.00004083       0.00107532
C        0.00000486       5.24806828      10.00090977        2      -0.00000098      -0.00001501       0.00071499
Ti       0.00000177       6.99748685       8.71014262        0       0.00000680       0.00000707       0.00103735
Ti       1.51501478       6.12276251      11.29105471        0       0.00001751       0.00000282       0.00060246
O        0.00002787       6.99752307      12.23008024        3       0.00000810      -0.00002323       0.04980073
O        1.51499410       6.12282215       7.77056218        1      -0.00000678       0.00003266       0.00112103
C       -1.51504262       7.87219644      10.00093239        2       0.00000077      -0.00000295       0.00074958
Ti      -1.51498688       9.62153299       8.71007292        0       0.00001423      -0.00000440       0.00096316
Ti      -0.00000700       8.74688741      11.29106466        0       0.00000770       0.00001129       0.00063286
O       -1.51513259       9.62154014      12.23008024        3      -0.00005322      -0.00001906       0.07796559
O        0.00000934       8.74684256       7.77056573        1       0.00001301      -0.00000923       0.00114628
C        6.05998583       0.00002353      10.00091552        2      -0.00000098      -0.00002923       0.00079974
Ti       6.06000081       1.74936127       8.71009810        0      -0.00000212      -0.00000625       0.00106598
Ti       7.57506321       0.87471461      11.29099472        0       0.00004083       0.00000211       0.00061462
O        6.06001625       1.74912667      12.23008024        3      -0.00003568      -0.00002966       0.07164442
O        7.57498498       0.87468355       7.77055088        1      -0.00006692      -0.00001724       0.00113484
C        4.54496987       2.62403674      10.00096280        2      -0.00003502      -0.00002414       0.00074801
Ti       4.54499436       4.37343378       8.71010090        0       0.00000479      -0.00001130       0.00104473
Ti       6.05999034       3.49873217      11.29104825        0      -0.00001689      -0.00004228       0.00066110
O        4.54484099       4.37352493      12.23008024        3      -0.00003532      -0.00003798       0.06668457
O        6.05999281       3.49873685       7.77057602        1      -0.00000416      -0.00001838       0.00122280
C        3.03000109       5.24808436      10.00090963        2      -0.00001178      -0.00001040       0.00074676
Ti       3.02998592       6.99747846       8.71009462        0       0.00000259      -0.00001068       0.00099841
Ti       4.54505124       6.12281638      11.29100127        0       0.00003440      -0.00002285       0.00059177
O        3.03001026       6.99736220      12.23008024        3       0.00006070       0.00001344       0.07759604
O        4.54499483       6.12279212       7.77055687        1      -0.00003280      -0.00004397       0.00114086
C        1.51505272       7.87219786      10.00096697        2       0.00001072      -0.00000040       0.00077149
Ti       1.51498691       9.62153399       8.71009471        0      -0.00000072       0.00000088       0.00100709
Ti       3.03001154       8.74685364      11.29099786        0       0.00007927       0.00000757       0.00057181
O        1.51499407       9.62160234      12.23008024        3       0.00007794      -0.00001806       0.07591486
O        3.02996121       8.74683300       7.77053258        1      -0.00007581      -0.00004903       0.00104921
C        9.09003471      -0.00002461      10.00087418        2       0.00003923       0.00000150       0.00065797
Ti       9.08999864       1.74937345       8.71002735        0      -0.00002848       0.00000513       0.00088284
Ti      10.60505053       0.87468749      11.29082854        0       0.00004824      -0.00001638       0.00044128
O        9.09049993       1.74920876      12.23008024        3       0.00003849      -0.00001829       0.08221605
O       10.60495494       0.87469278       7.77047215        1      -0.00005951      -0.00000138       0.00086430
C        7.57501129       2.62404962      10.00094178        2       0.00000728      -0.00002354       0.00077492
Ti       7.57500343       4.37343099       8.71009567        0      -0.00002569      -0.00001839       0.00103649
Ti       9.09002508       3.49871773      11.29097419        0       0.00000789      -0.00003209       0.00057421
O        7.57508842       4.37347652      12.23008024        3       0.00000080      -0.00002639       0.06010114
O        9.08998389       3.49874384       7.77053252        1      -0.00005090       0.00003694       0.00107978
C        6.05999998       5.24811292      10.00093627        2      -0.00000502      -0.00001272       0.00077906
Ti       6.06000061       6.99747859       8.71004332        0      -0.00000493      -0.00003339       0.00091077
Ti       7.57497557       6.12281089      11.29098895        0      -0.00000744      -0.00001484       0.00058448
O        6.06005073       6.99791017      12.23008024        3       0.00001073      -0.00002156       0.08248118
O        7.57499552       6.12279366       7.77054416        1       0.00001786      -0.00005728       0.00111466
C        4.54499597       7.87221141      10.00088692        2       0.00002778      -0.00000153       0.00066500
Ti       4.54498986       9.62153659       8.70998035        0      -0.00001108      -0.00001132       0.00075113
Ti       6.06001315       8.74690309      11.29084533        0       0.00001052       0.00000549       0.00046186
O        4.54540753       9.62183620      12.23008024        3       0.00002733      -0.00001429       0.07234028
O        6.05999311       8.74680800       7.77048490        1      -0.00001599      -0.00006925       0.00090064
C        0.04503349       0.06754607      17.73008024       10       0.00039461       0.00027476      -0.03793285
C        1.25709488       0.76733546      17.73008024       10      -0.00316662      -0.00131268      -0.03437439
C       -1.16702802       2.16676861      17.73008024       10       0.00017642       0.00202647      -0.02964147
C        0.04500078       2.86657864      17.73008024       10      -0.00009405      -0.00119751      -0.02820930
C       -2.37901224       4.26602472      17.73008024       10      -0.00100004       0.00053725      -0.02094441
C       -1.16701607       4.96577684      17.73008024       10       0.00084417      -0.00050902      -0.01586473
C       -3.59101242       6.36528118      17.73008024       10      -0.00097905       0.00157423      -0.01950987
C       -2.37904115       7.06507175      17.73008024       10       0.00082217      -0.00194412      -0.01544298
C       -4.80306892       8.46452696      17.73008024       10       0.00120650       0.00071387      -0.02795673
C       -3.59101144       9.16430847      17.73008024       10      -0.00073402      -0.00040491      -0.02523316
C        2.46903358       0.06758716      17.73008024       10       0.00150959       0.00002176      -0.02681095
C        3.68107176       0.76727391      17.73008024       10      -0.00221128      -0.00039497      -0.02713195
C        1.25701529       2.16679921      17.73008024       10       0.00202536       0.00160128      -0.02928231
C        2.46900982       2.86656870      17.73008024       10      -0.00209887       0.00013545      -0.02593860
C        0.04501691       4.26603954      17.73008024       10      -0.00086438       0.00019698      -0.02216092
C        1.25703845       4.96576286      17.73008024       10      -0.00099110       0.00155060      -0.01552549
C       -1.16707560       6.36524596      17.73008024       10      -0.00047338       0.00112318      -0.03750630
C        0.04497144       7.06501734      17.73008024       10       0.00112973      -0.00001815      -0.01450481
C       -2.37904892       8.46454155      17.73008024       10       0.00079307       0.00080793      -0.02272603
C       -1.16702435       9.16428036      17.73008024       10       0.00043202       0.00157218      -0.01537958
C        4.89305361       0.06760524      17.73008024       10       0.00002131      -0.00126396      -0.02537961
C        6.10502782       0.76732451      17.73008024       10       0.00076949      -0.00013508      -0.02182014
C        3.68098395       2.16678555      17.73008024       10       0.00139153       0.00005818      -0.01606341
C        4.89298645       2.86653285      17.73008024       10       0.00068255       0.00082419      -0.02875245
C        2.46904880       4.26605964      17.73008024       10       0.00094653      -0.00233436      -0.02431064
C        3.68100720       4.96579380      17.73008024       10      -0.00094966       0.00234852      -0.02492914
C        1.25704708       6.36526234      17.73008024       10      -0.00068025      -0.00079138      -0.03842007
C        2.46901050       7.06503973      17.73008024       10      -0.00139446      -0.00004256      -0.01518763
C        0.04497300       8.46456438      17.73008024       10      -0.00076455       0.00017859      -0.03974166
C        1.25696522       9.16428535      17.73008024       10      -0.00002445       0.00130546      -0.01517061
C        7.31700213       0.06760523      17.73008024       10      -0.00041204      -0.00152775      -0.02367921
C        8.52902743       0.76725457      17.73008024       10      -0.00078788      -0.00077221      -0.02748741
C        6.10502985       2.16683357      17.73008024       10      -0.00112743       0.00005688      -0.01474545
C        7.31704134       2.86653906      17.73008024       10       0.00045418      -0.00108791      -0.03269026
C        4.89300158       4.26605853      17.73008024       10       0.00099205      -0.00151842      -0.01469321
C        6.10498842       4.96582403      17.73008024       10       0.00085080      -0.00017126      -0.03514872
C        3.68098903       6.36527436      17.73008024       10       0.00211171      -0.00010435      -0.02098107
C        4.89297422       7.06505331      17.73008024       10      -0.00202837      -0.00158601      -0.02732385
C        2.46894176       8.46453187      17.73008024       10       0.00220861       0.00042533      -0.02271209
C        3.68097361       9.16427443      17.73008024       10      -0.00152297      -0.00000215      -0.02151301
C        9.74102053       0.06755621      17.73008024       10       0.00075298       0.00042968      -0.02612271
C       10.95302582       0.76729509      17.73008024       10      -0.00120483      -0.00068481      -0.03147303
C        8.52903629       2.16674963      17.73008024       10      -0.00081801       0.00198339      -0.01581579
C        9.74100834       2.86656098      17.73008024       10       0.00096713      -0.00154856      -0.02499035
C        7.31701343       4.26604469      17.73008024       10      -0.00084158       0.00054994      -0.01458669
C        8.52902037       4.96582546      17.73008024       10       0.00099059      -0.00051329      -0.02880604
C        6.10499850       6.36529629      17.73008024       10       0.00009852       0.00123572      -0.01570008
C        7.31701724       7.06507787      17.73008024       10      -0.00017960      -0.00199984      -0.02587401
C        4.89295299       8.46449725      17.73008024       10       0.00316860       0.00134929      -0.02703173
C        6.10495659       9.16428032      17.73008024       10      -0.00039343      -0.00024361      -0.02841326
