132
Lattice="12.12 0.0 0.0 -6.06 10.496227893867395 0.0 0.0 0.0 40.0" Properties=species:S:1:pos:R:3:tags:I:1:forces:R:3 energy=-1208.647258990362 stress="0.002825305114034559 2.3682622737137376e-06 -6.570807695765005e-07 2.3682622737137376e-06 0.0028288001802231582 1.3961722217179237e-06 -6.570807695765005e-07 1.3961722217179237e-06 0.001910829847416511" pbc="T T F"
C        0.00071897       0.00214720      10.00168661        2       0.00027396      -0.00034531       0.00364819
Ti       0.00073874       1.75112248       8.71105799        0      -0.00034329      -0.00005412       0.00675168
Ti       1.51475779       0.87722924      11.29166887        0       0.00424802      -0.00247731      -0.00230669
O        0.00259393       1.75054273      12.23008024        3      -0.00146916       0.00064089       0.05998663
O        1.51506663       0.87679395       7.77163701        1       0.00044699      -0.00017750      -0.00186392
C       -1.51414459       2.62598585      10.00319967        2      -0.00119308      -0.00003799       0.00549871
Ti      -1.51444073       4.37566288       8.71035443        0      -0.00095394      -0.00014589       0.00749038
Ti      -0.00169221       3.50074498      11.29616784        0      -0.00031151      -0.00029463       0.00210384
O       -1.51495723       4.37646521      12.23008024        3       0.00226397      -0.00013026       0.02929845
O        0.00021914       3.50072097       7.77143687        1      -0.00083593      -0.00098432       0.00571623
C       -3.02978624       5.25069544      10.00150934        2       0.00020317      -0.00023070       0.00557149
Ti      -3.02979501       6.99968786       8.71030216        0       0.00096858       0.00001196       0.00057258
Ti      -1.51510495       6.12487362      11.29091536        0       0.00001426       0.00365071      -0.00059144
O       -3.03020649       6.99980470      12.23008024        3       0.00075886       0.00111018       0.05817555
O       -1.51451888       6.12448294       7.77116422        1      -0.00036777       0.00092027       0.00070490
C       -4.54469488       7.87428467      10.00112269        2       0.00113345       0.00106405       0.00061174
Ti      -4.54476089       9.62349356       8.71132934        0       0.00122142       0.00136760      -0.00526166
Ti      -3.02984703       8.74893602      11.29198112        0       0.00025336       0.00193894      -0.00532962
O       -4.54492198       9.62354434      12.23008024        3       0.00072739       0.00050037       0.08916900
O       -3.02996463       8.74898067       7.77064918        1       0.00104583      -0.00035223       0.00211700
C        3.03077259       0.00174314      10.00106416        2      -0.00131284       0.00099729       0.00164347
Ti       3.03027121       1.75133031       8.71113604        0      -0.00009854      -0.00118353      -0.00425732
Ti       4.54562984       0.87688792      11.29204843        0      -0.00217685      -0.00113462      -0.00553991
O        3.03066495       1.75173935      12.23008024        3      -0.00118851      -0.00076251       0.06671057
O        4.54511680       0.87685534       7.77079475        1       0.00140191      -0.00098153       0.00217530
C        1.51543585       2.62594400      10.00141980        2       0.00083941      -0.00029683       0.00321368
Ti       1.51522171       4.37520507       8.71100748        0       0.00041241       0.00019336       0.00362337
Ti       3.03001197       3.50071877      11.29201961        0       0.00257681       0.00034730      -0.00395887
O        1.51703290       4.37621661      12.23008024        3       0.00028756       0.00036861       0.05576870
O        3.03017126       3.50066341       7.77152327        1       0.00069837       0.00148911      -0.00129160
C        0.00006022       5.24992140      10.00161629        2       0.00011316       0.00101969       0.00337358
Ti       0.00031730       6.99955220       8.71089603        0      -0.00127108       0.00047001      -0.00055945
Ti       1.51498469       6.12475142      11.29230295        0       0.00115330       0.00144849      -0.00371640
O        0.00041249       6.99966922      12.23008024        3       0.00066761       0.00223822       0.06520887
O        1.51526217       6.12474491       7.77188166        1       0.00062462      -0.00005964      -0.00268563
C       -1.51480944       7.87464491      10.00067581        2      -0.00061773      -0.00018526       0.00233006
Ti      -1.51488145       9.62348498       8.71008870        0       0.00119295       0.00021856       0.00009989
Ti       0.00044532       8.74893860      11.29163731        0      -0.00133295      -0.00002874      -0.00229657
O       -1.51484032       9.62336899      12.23008024        3       0.00059248       0.00033416       0.06197180
O        0.00086750       8.74881429       7.77115439        1      -0.00195186       0.00125894       0.00159925
C        6.05971849       0.00171936      10.00120159        2      -0.00040094       0.00118138       0.00202669
Ti       6.05998509       1.75110713       8.71086670        0       0.00112291      -0.00031804      -0.00111834
Ti       7.57565975       0.87787941      11.29298865        0      -0.00184145      -0.00143438      -0.00307474
O        6.06010642       1.75230870      12.23008024        3       0.00007767      -0.00035443       0.06562941
O        7.57585242       0.87664122       7.77231711        1      -0.00167996       0.00011252      -0.00201883
C        4.54520140       2.62595836      10.00117591        2      -0.00036122      -0.00127132       0.00046005
Ti       4.54539164       4.37525183       8.71093735        0      -0.00104864       0.00081093      -0.00022657
Ti       6.06072336       3.50065253      11.29164886        0      -0.00188051      -0.00047375      -0.00438603
O        4.54501900       4.37573655      12.23008024        3       0.00052393      -0.00105921       0.06387093
O        6.06031460       3.50062129       7.77167911        1       0.00014263       0.00152117      -0.00196122
C        3.03018773       5.25021200      10.00127182        2      -0.00023955      -0.00047950       0.00175379
Ti       3.03034210       6.99966952       8.71140705        0      -0.00025108      -0.00070650      -0.00124033
Ti       4.54533699       6.12489750      11.29215325        0      -0.00010548      -0.00016003      -0.00134215
O        3.03021704       6.99966899      12.23008024        3       0.00006007       0.00046299       0.07094093
O        4.54528967       6.12481221       7.77163585        1       0.00008179       0.00020170      -0.00102728
C        1.51527154       7.87428990      10.00157957        2      -0.00025693       0.00038090      -0.00014065
Ti       1.51514795       9.62359361       8.71178306        0      -0.00047422       0.00083122      -0.00213336
Ti       3.03053792       8.74970283      11.29283788        0      -0.00121101      -0.00087809      -0.00448416
O        1.51489185       9.62265232      12.23008024        3      -0.00038778      -0.00006947       0.06000989
O        3.03038321       8.74941671       7.77250438        1       0.00049314      -0.00124049      -0.00343630
C        9.09060285       0.00273141      10.00292233        2      -0.00114686      -0.00124005       0.00109155
Ti       9.09020775       1.75106759       8.71162290        0      -0.00013490       0.00079623       0.00458950
Ti      10.60460541       0.87910605      11.29823912        0      -0.00118561       0.00024376       0.00063933
O        9.08928544       1.75231616      12.23008024        3      -0.00019493      -0.00097815       0.04342942
O       10.60499768       0.87680416       7.77223889        1       0.00218152       0.00097591       0.00387949
C        7.57488353       2.62596013      10.00168945        2       0.00059326      -0.00024403       0.00296441
Ti       7.57520452       4.37539576       8.71113753        0       0.00115856      -0.00041021       0.00300863
Ti       9.09119865       3.50119576      11.29575103        0       0.00040395      -0.00276096       0.00108772
O        7.57465201       4.37564450      12.23008024        3      -0.00273112       0.00042946       0.06664548
O        9.09046574       3.50048821       7.77240713        1       0.00036745       0.00054983       0.00225707
C        6.06043637       5.25016744      10.00148974        2       0.00137005      -0.00040879       0.00073237
Ti       6.06042921       6.99946141       8.71089858        0      -0.00038631       0.00100381       0.00003361
Ti       7.57556437       6.12493696      11.29186426        0      -0.00086188       0.00255693      -0.00494440
O        6.05985047       6.99994342      12.23008024        3       0.00112577      -0.00007756       0.06148469
O        7.57525320       6.12466566       7.77138607        1      -0.00113226       0.00001394      -0.00086012
C        4.54525412       7.87439249      10.00144659        2       0.00037960       0.00073238       0.00123950
Ti       4.54555192       9.62383499       8.71156594        0      -0.00006959       0.00048214       0.00308185
Ti       6.06011869       8.74944753      11.29199660        0       0.00171429      -0.00218053      -0.00411359
O        4.54602419       9.62215304      12.23008024        3       0.00021648      -0.00140951       0.07575364
O        6.06007841       8.74906397       7.77172365        1      -0.00038627      -0.00044940      -0.00128067
C        0.06656100       0.05269587      17.84625431       10       0.00099256      -0.00022576      -0.03382308
C        1.27586104       0.75424465      17.85464254       10       0.00141142      -0.00009660      -0.00326154
C       -1.12892568       2.14307312      17.82188364       10       0.00466313      -0.00481595       0.50116005
C        0.06335307       2.85188414      17.82952238       10       0.00391251       0.00147727       0.02449713
C       -2.36394729       4.27986748      17.82187809       10      -0.00221537      -0.00233311       0.27902208
C       -1.15234190       4.95710164      17.82951982       10      -0.00329578       0.00335595       0.03981702
C       -3.57540367       6.36104580      17.84625376       10      -0.00067277      -0.00022456       0.02337711
C       -2.36276650       7.05726516      17.85464234       10      -0.00231651      -0.00044261       0.02467061
C       -4.78685720       8.45383229      17.84436137       10       0.00692878       0.00261094      -0.00499725
C       -3.57507996       9.15322766      17.85565103       10       0.00261141      -0.00032888      -0.01334698
C        2.48627094       0.05538507      17.85667605       10       0.00364644       0.00157641      -0.02218120
C        3.69677416       0.75576686      17.85565094       10       0.00111573       0.00276941      -0.02068915
C        1.27912030       2.15233432      17.84625452       10      -0.00148713       0.00115039      -0.02685480
C        2.48634938       2.85488486      17.83719439       10       0.00251549       0.00045695      -0.02832082
C        0.06070749       4.25424243      17.80339450       10      -0.00741365       0.00478100       0.13346604
C        1.27128395       4.95351469      17.81506445       10       0.00158754      -0.00023020      -0.05301118
C       -1.15039153       6.35986563      17.84625376       10       0.00018193      -0.00034088       0.00145037
C        0.06146441       7.05500119      17.83719449       10       0.00451580       0.00211958      -0.02183684
C       -2.36298704       8.45539245      17.85667626       10       0.00134770      -0.00434944      -0.03426886
C       -1.15086562       9.15315603      17.85565103       10      -0.00384548      -0.00101984      -0.01245557
C        4.90730991       0.05542664      17.85667605       10       0.00095366      -0.00138063      -0.01654526
C        6.11812525       0.75443784      17.85464254       10       0.00165476       0.00118709       0.02148130
C        3.69678995       2.15490656      17.84436124       10      -0.00260651      -0.00190506       0.00036578
C        4.90741021       2.85502299      17.83719439       10      -0.00042482      -0.00087813      -0.03334729
C        2.48485776       4.25425933      17.82331089       10      -0.00473025       0.00186349      -0.03028091
C        3.69649315       4.95448790      17.82052303       10       0.00376228      -0.00412133      -0.00130737
C        1.27289771       6.35432050      17.82331079       10       0.00266294      -0.00034091      -0.04195201
C        2.48479968       7.05407525      17.82052292       10       0.00365763       0.00125258       0.00493972
C        0.06087467       8.45362651      17.84436137       10      -0.00474923      -0.00208611      -0.01111417
C        1.27249950       9.15227622      17.83719424       10      -0.00462195       0.00064563      -0.02231978
C        7.32835228       0.05320278      17.84625431       10      -0.00311563      -0.00192065       0.00913573
C        8.54200760       0.75640526      17.82952219       10       0.00148011      -0.00009001       0.03266058
C        6.11472620       2.15273616      17.84625452       10      -0.00082661      -0.00367914       0.02483559
C        7.32993506       2.85269639      17.82952238       10       0.00009569       0.00497320      -0.00350072
C        4.90856588       4.25458593      17.82331089       10      -0.00126360      -0.00151749      -0.02199377
C        6.12215279       4.95397056      17.81506445       10      -0.00139372       0.00052249      -0.05813599
C        3.69681989       6.35422831      17.81744503       10      -0.00219529       0.00277516      -0.03090309
C        4.90887746       7.05441841      17.82052292       10       0.00228885       0.00011375      -0.00845980
C        2.48500513       8.45354786      17.82331062       10      -0.00474796      -0.00044076      -0.04512758
C        3.69701682       9.15565214      17.81506404       10       0.00382484      -0.00346756      -0.05194619
C        9.75729922       0.05757894      17.80339445       10      -0.00569709      -0.00498843       0.13677030
C       10.97309782       0.75619636      17.82952219       10       0.00257361      -0.00722967       0.00867318
C        8.52292362       2.14414833      17.82188364       10      -0.00347798       0.00045972       0.29102824
C        9.75486284       2.85658989      17.57752438       10       0.00471784      -0.00524255      -1.95209194
C        7.33281960       4.25497181      17.80339450       10      -0.00005531       0.00381767       0.15091929
C        8.54585968       4.95857132      17.82951982       10      -0.00111460       0.00102924       0.01455465
C        6.12118680       6.35469473      17.82331079       10      -0.00380206       0.00182006      -0.02215265
C        7.33270833       7.05538818      17.83719449       10      -0.00590633       0.00328126      -0.02578832
C        4.90913410       8.45392539      17.82331062       10       0.00252736      -0.00003077      -0.03762213
C        6.12171350       9.15216168      17.83719424       10       0.00712165       0.00039855      -0.03536609
O        9.82695017       2.81539690      15.99250349       11      -0.00036083      -0.00247960       0.00284246
H        9.03409834       3.24890547      15.63191526       12      -0.00275462       0.00536032      -0.00496188
