132
Lattice="12.12 0.0 0.0 -6.06 10.496227893867395 0.0 0.0 0.0 40.0" Properties=species:S:1:pos:R:3:tags:I:1:forces:R:3 energy=-1209.9088799995277 stress="0.002776593347841864 -5.708719842361598e-06 2.9691430359838466e-06 -5.708719842361598e-06 0.0027636410568498268 -4.623420173826514e-06 2.9691430359838466e-06 -4.623420173826514e-06 0.0026722235455737876" pbc="T T F"
C       -0.00138173       0.00048243       9.99650872        2       0.00120680      -0.00045205       0.00053774
Ti      -0.00238673       1.75551782       8.70567973        0       0.00292943      -0.00133203       0.00165226
Ti       1.51413602       0.88011035      11.31660812        0       0.00159388      -0.00125725       0.00066271
O        0.00118538       1.74555908      12.23159545        3       0.00120897       0.00068550      -0.02958335
O        1.50969260       0.88040405       7.77886957        1       0.00195265      -0.00141609       0.00157264
C       -1.51820158       2.62922626      10.01576331        2      -0.00013562       0.00091836      -0.00297101
Ti      -1.51539203       4.38085224       8.71490162        0       0.00087708      -0.00041218       0.00049734
Ti      -0.00909577       3.50155782      11.32506376        0       0.00008442       0.00245979      -0.00073008
O       -1.50710213       4.39468948      12.23159545        3      -0.00209251      -0.00127451      -0.24647724
O       -0.00508862       3.50400937       7.78396978        1       0.00172761      -0.00151768      -0.00058190
C       -3.03338332       5.25210378      10.00817725        2      -0.00033448       0.00060973      -0.00295627
Ti      -3.03260587       7.00097334       8.70686481        0       0.00062117       0.00214808       0.00017149
Ti      -1.51541368       6.13195395      11.30927487        0       0.00280663      -0.00076089       0.00071388
O       -3.03280317       7.00624273      12.23159545        3      -0.00056905      -0.00070302       0.01794216
O       -1.51871446       6.12530234       7.78195948        1       0.00068075       0.00142389      -0.00089065
C       -4.54805849       7.87734638      10.00063578        2      -0.00029798      -0.00003497      -0.00053378
Ti      -4.54797205       9.62594479       8.70202586        0       0.00029118      -0.00087155      -0.00022594
Ti      -3.03437592       8.75032080      11.32457117        0       0.00132816       0.00261639      -0.00087129
O       -4.55122969       9.62742992      12.23159545        3       0.00060606      -0.00133887      -0.02730332
O       -3.03404934       8.74769403       7.77772810        1      -0.00027210       0.00160555       0.00064059
C        3.02726205       0.00402912       9.99966332        2       0.00031842      -0.00119696       0.00153915
Ti       3.02589933       1.75395042       8.70485088        0      -0.00024465      -0.00068692      -0.00004895
Ti       4.54526702       0.88253898      11.32201011        0       0.00148258      -0.00199204       0.00031032
O        3.02493605       1.75234007      12.23159545        3      -0.00000052      -0.00170122       0.01263112
O        4.54236024       0.88073261       7.77742755        1       0.00014437      -0.00113192       0.00079853
C        1.51405481       2.62897683       9.99999721        2       0.00215299      -0.00223885      -0.00068594
Ti       1.51224082       4.37647888       8.70624726        0       0.00165756      -0.00073708      -0.00072550
Ti       3.02669483       3.50419892      11.32460016        0       0.00023495      -0.00266491       0.00006073
O        1.51367699       4.37646984      12.23159545        3       0.00140928      -0.00072085       0.01541597
O        3.02747865       3.50373239       7.78063473        1       0.00105985      -0.00100780      -0.00028482
C       -0.00140078       5.25538111      10.00263194        2      -0.00021647       0.00046456      -0.00253325
Ti      -0.00254243       7.00085193       8.70368852        0      -0.00050262       0.00094961      -0.00022521
Ti       1.51143451       6.12697756      11.32287836        0      -0.00075753      -0.00072664       0.00065782
O       -0.00021630       7.00386153      12.23159545        3      -0.00057203      -0.00033986      -0.00701775
O        1.51213351       6.12576837       7.78091207        1       0.00065606      -0.00015899      -0.00047235
C       -1.51810702       7.88137385       9.99922423        2       0.00058169       0.00097027      -0.00098309
Ti      -1.51867237       9.62557888       8.69871614        0      -0.00081740      -0.00199532      -0.00032964
Ti       0.00152157       8.75226657      11.31966321        0       0.00055359       0.00175822       0.00086672
O       -1.51835229       9.62648516      12.23159545        3       0.00027734      -0.00060797      -0.01695239
O       -0.00417843       8.74891489       7.77540478        1       0.00150250       0.00052222       0.00072771
C        6.05062764      -0.00031537       9.99647693        2       0.00032177      -0.00037378      -0.00041851
Ti       6.05466193       1.75370016       8.70668265        0      -0.00069090      -0.00227675       0.00073212
Ti       7.56941101       0.87638329      11.29622140        0       0.00066886      -0.00321792       0.00058075
O        6.05840438       1.74864218      12.23159545        3       0.00085121       0.00263217       0.01832554
O        7.57212366       0.87986735       7.77803468        1      -0.00055018      -0.00115248       0.00168486
C        4.54124933       2.62664524      10.00064863        2       0.00028139      -0.00101427      -0.00048457
Ti       4.54237713       4.37680605       8.70456825        0      -0.00041472      -0.00146518      -0.00036164
Ti       6.06143185       3.49755188      11.31417194        0      -0.00166528       0.00033094      -0.00128758
O        4.54327663       4.37544728      12.23159545        3       0.00070178      -0.00227116      -0.00881234
O        6.05842698       3.50282782       7.78067080        1      -0.00182011      -0.00224617       0.00045883
C        3.02948556       5.25154901      10.00137076        2       0.00018023      -0.00053929      -0.00021945
Ti       3.02876407       6.99934515       8.70469984        0       0.00016761      -0.00001454       0.00131305
Ti       4.54358768       6.12401205      11.31898731        0       0.00094872      -0.00140368       0.00125724
O        3.02922428       7.00287629      12.23159545        3       0.00008844      -0.00003850      -0.01618876
O        4.54391320       6.12502198       7.77937520        1      -0.00053508      -0.00030657       0.00077889
C        1.51341311       7.87694562       9.99944303        2       0.00026332      -0.00038898       0.00011140
Ti       1.51155329       9.62139909       8.70104632        0      -0.00096748      -0.00073070       0.00057102
Ti       3.02794573       8.75411025      11.31862376        0       0.00065330       0.00237151       0.00217463
O        1.51467010       9.62587066      12.23159545        3      -0.00026153      -0.00101078      -0.00548863
O        3.02703979       8.74807339       7.77599634        1       0.00036461      -0.00117846       0.00127209
C        9.08620787      -0.00170451       9.99382656        2       0.00078649       0.00038519      -0.00106959
Ti       9.08473550       1.74889717       8.69238929        0       0.00068483      -0.00087634      -0.00020007
Ti      10.61159284       0.87601102      11.28966676        0       0.00143344      -0.00015277      -0.00255911
O        9.08969650       1.72676525      12.23159545        3       0.00517950       0.00328533       0.03445189
O       10.60131770       0.88145598       7.77735841        1       0.00198400      -0.00026332       0.00174806
C        7.57404309       2.62676382      10.00800581        2       0.00052007       0.00140536      -0.00086164
Ti       7.56854768       4.37906071       8.70697144        0       0.00039700      -0.00072430      -0.00132569
Ti       9.10221589       3.50678694      11.34726624        0       0.00472868       0.00230661      -0.00297273
O        7.57134631       4.37570795      12.23159545        3       0.00344937      -0.00065234      -0.00430335
O        9.08815570       3.50222528       7.79239375        1       0.00094689      -0.00146297      -0.00054188
C        6.05924060       5.25024354      10.00347820        2       0.00040821      -0.00060947       0.00051574
Ti       6.05761700       7.00167799       8.70483388        0      -0.00015442       0.00021545      -0.00110815
Ti       7.57395702       6.12455709      11.31988899        0      -0.00117582       0.00265149      -0.00181012
O        6.05811792       7.00296037      12.23159545        3       0.00215249      -0.00097824       0.01357075
O        7.57345940       6.12472998       7.78177717        1      -0.00012159       0.00248424      -0.00058421
C        4.54346527       7.87435527       9.99851054        2       0.00036702       0.00015818       0.00008562
Ti       4.54198309       9.62314700       8.69914087        0       0.00067320      -0.00114697      -0.00033176
Ti       6.05271980       8.74913432      11.32217061        0      -0.00044296      -0.00111099       0.00138888
O        4.54627898       9.62656857      12.23159545        3       0.00162633       0.00147564       0.00283769
O        6.05829468       8.74899079       7.77692753        1      -0.00003871      -0.00122357      -0.00014347
C        0.06728997       0.06616334      16.14250636       10      -0.00622284      -0.00408894      -0.04257006
C        1.27183160       0.77018899      16.15089459       10       0.00027609       0.00245988       0.01012422
C       -1.12723058       2.15336526      16.11813569       10      -0.00042877       0.00396309       0.32162602
C        0.06120275       2.86743126      16.12577443       10      -0.00060517       0.00101846       0.09157980
C       -2.36525801       4.30881171      16.11813014       10       0.00065783      -0.00163923       0.72569106
C       -1.15401952       4.97727907      16.12577187       10      -0.00061566      -0.00082509       0.03727067
C       -3.57868301       6.38227074      16.14250581       10      -0.00258828       0.00179481       0.00482973
C       -2.36659673       7.07465082      16.15089439       10      -0.00015654       0.00025927      -0.00111836
C       -4.78953512       8.47128908      16.14061342       10      -0.00350202      -0.00019533      -0.01595611
C       -3.57874814       9.17024421      16.15190308       10       0.00614238       0.00584440       0.01560731
C        2.48352758       0.07037039      16.15292810       10      -0.00070186       0.00223684      -0.00768918
C        3.69239200       0.77107951      16.15190299       10      -0.00184373       0.00091596       0.00872010
C        1.27644813       2.16524425      16.14250657       10       0.00010818       0.00034944      -0.02315567
C        2.48255313       2.86991654      16.13344644       10       0.00143069      -0.00026158       0.01785155
C        0.06189768       4.27244100      16.09964655       10      -0.00394994      -0.00062753       0.02952470
C        1.26921809       4.96977582      16.11131650       10      -0.00402684       0.00006409      -0.02497047
C       -1.15398033       6.38152034      16.14250581       10      -0.00051886       0.00034783       0.02773598
C        0.05818746       7.07258975      16.13344654       10      -0.00005407       0.00086843      -0.01351936
C       -2.36660156       8.47343715      16.15292831       10       0.00068181      -0.00024122       0.03372668
C       -1.15612298       9.16984427      16.15190308       10      -0.00162015       0.00023169      -0.00326883
C        4.90156622       0.07014442      16.15292810       10      -0.00297952       0.00011538       0.02379271
C        6.11372571       0.77023976      16.15089459       10      -0.00291447       0.00049543       0.01123024
C        3.69159733       2.16935459      16.14061329       10      -0.00035234      -0.00131224      -0.00160160
C        4.90223645       2.87077694      16.13344644       10      -0.00310882       0.00001075       0.02727203
C        2.48150240       4.26898267      16.11956294       10      -0.00143362       0.00155044       0.01928969
C        3.69326332       4.97092950      16.11677508       10       0.00001165       0.00316375      -0.00116410
C        1.26847598       6.37113440      16.11956284       10       0.00063795       0.00159613       0.04630356
C        2.48175586       7.06987203      16.11677497       10       0.00257959      -0.00015454      -0.01207367
C        0.05606147       8.46960369      16.14061342       10      -0.00150421       0.00066093       0.03185178
C        1.26784738       9.16597005      16.13344629       10      -0.00092568      -0.00105650       0.00601637
C        7.31901603       0.06496628      16.14250636       10      -0.00078921      -0.00041337       0.01010155
C        8.53451563       0.76702101      16.12577424       10      -0.00068637       0.00061874       0.08035287
C        6.10761364       2.16562438      16.14250657       10      -0.00390912       0.00076881      -0.00563133
C        7.32416226       2.86857488      16.12577443       10      -0.00210304      -0.00044645       0.05571028
C        4.90445996       4.26962590      16.11956294       10      -0.00158597       0.00055873       0.00675970
C        6.11767683       4.97097099      16.11131650       10      -0.00084742      -0.00011963      -0.00481553
C        3.69308682       6.37047406      16.11369708       10       0.00242333       0.00275054       0.00208641
C        4.90526710       7.07021264      16.11677497       10      -0.00029959       0.00232664       0.00028492
C        2.47969019       8.46923797      16.11956267       10      -0.00096460      -0.00211328       0.04347434
C        3.69407220       9.16893380      16.11131609       10      -0.00224694      -0.00075623      -0.00521767
C        9.75464155       0.06625329      16.09964650       10      -0.00375671      -0.00324455      -0.05380859
C       10.97183080       0.76785677      16.12577424       10       0.00435494       0.00455630       0.05393841
C        8.51018780       2.15215323      16.11813569       10      -0.00246319       0.00005546       0.34159932
C        9.74963876       2.86817159      15.87377643       10      -0.00071755      -0.00039657      -1.71545633
C        7.32624810       4.27465912      16.09964655       10      -0.00045930       0.00049678      -0.01505568
C        8.54215618       4.97910003      16.12577187       10       0.00326192      -0.00032197       0.07871220
C        6.11807298       6.37253477      16.11956284       10      -0.00394572       0.00016120       0.00640997
C        7.32852604       7.07324847      16.13344654       10      -0.00314545      -0.00124905       0.00931821
C        4.90723074       8.47039967      16.11956267       10      -0.00443712      -0.00285357       0.00361658
C        6.11888614       9.16738019      16.13344629       10       0.00433996      -0.00007682       0.01585097
O        9.76973840       2.98694704      14.35985673       11      -0.00103104       0.00404594      -0.00036705
H        9.48364697       2.17056618      13.88849809       12       0.00141241      -0.00061785       0.00237872
