132
Lattice="12.12 0.0 0.0 -6.06 10.496227893867395 0.0 0.0 0.0 40.0" Properties=species:S:1:pos:R:3:tags:I:1:forces:R:3 energy=-1208.8908164935028 stress="0.0027971097880239854 -8.561668339020779e-06 2.987060090321613e-06 -8.561668339020779e-06 0.002786317200329209 -1.5544840981310007e-06 2.987060090321613e-06 -1.5544840981310007e-06 0.0028751803226249283" pbc="T T F"
C       -0.43251765       0.14474331       9.95800753        2       0.00022543       0.00236550      -0.00039215
Ti      -0.42705776       1.89419257       8.67742806        0      -0.00020980      -0.00157873       0.00346426
Ti       1.10616042       1.00891479      11.26455384        0       0.00673772      -0.00407223       0.00047125
O       -0.38914113       1.87168600      12.23159545        3      -0.00466301       0.00650433      -0.64558182
O        1.07989607       1.02493697       7.76588749        1       0.00059126       0.00012389      -0.00035805
C       -1.95122960       2.77395965      10.01000359        2      -0.00115971       0.00255125      -0.00548975
Ti      -1.95659426       4.53364515       8.69792907        0      -0.00329268      -0.00117751      -0.00353825
Ti      -0.45661281       3.66930120      11.28986317        0      -0.00544289      -0.00228854      -0.00478278
O       -1.94795263       4.57494557      12.23159545        3      -0.00087542       0.00055905      -0.59375325
O       -0.44093593       3.64725993       7.77749832        1      -0.00255410       0.00053996      -0.00265046
C       -3.46298343       5.40472469       9.96519678        2      -0.00302730       0.00212834      -0.00619098
Ti      -3.47120878       7.14631763       8.69003833        0       0.00099066       0.00328838       0.00520185
Ti      -1.95160490       6.30089325      11.26503424        0      -0.00176489      -0.00514171       0.00318070
O       -3.46708965       7.15209277      12.23159545        3       0.00136511      -0.00280709      -0.19010395
O       -1.95067395       6.27264599       7.76510484        1       0.00465497       0.00665816      -0.00008704
C       -4.97917774       8.02339733       9.96535093        2      -0.00174004       0.00108342      -0.00149582
Ti      -4.98517820       9.76455764       8.69016678        0      -0.00344714      -0.00191167       0.00187417
Ti      -3.47123525       8.89870625      11.29036410        0      -0.00380997       0.00124593       0.00420955
O       -4.98202739       9.77138934      12.23159545        3      -0.00072411       0.00279944      -0.16589690
O       -3.46630831       8.89676424       7.76369268        1      -0.00053211       0.00363730       0.00111747
C        2.60200305       0.14571076       9.97264209        2       0.00206943      -0.00154689       0.00175979
Ti       2.59833305       1.90823973       8.69125177        0      -0.00251342      -0.00149861      -0.00067660
Ti       4.10419573       1.02767830      11.29181082        0       0.00267715       0.00539104       0.00098707
O        2.59342087       1.90024842      12.23159545        3      -0.00143135       0.00020028      -0.16178196
O        4.10918182       1.02682425       7.76512388        1      -0.00053248      -0.00169222      -0.00287206
C        1.08532044       2.77378003       9.95901879        2      -0.00256545       0.00093836      -0.00336327
Ti       1.08409891       4.52440448       8.68534977        0       0.00217181      -0.00652252      -0.00146848
Ti       2.58938146       3.64761789      11.29028421        0       0.00561152       0.00182067       0.00475575
O        1.07737136       4.52364625      12.23159545        3      -0.00151463      -0.00187422      -0.17370354
O        2.59692650       3.65191333       7.76392772        1      -0.00038793       0.00349547       0.00226383
C       -0.43405605       5.40855815       9.96699083        2      -0.00598227      -0.00231130       0.00058803
Ti      -0.43338136       7.14780549       8.68860625        0       0.00275708       0.00329834       0.00151085
Ti       1.07981174       6.27427724      11.29215661        0      -0.00500088       0.00677980       0.00108502
O       -0.43350814       7.15287157      12.23159545        3      -0.00412814      -0.00192215      -0.21197061
O        1.07916064       6.27380384       7.76637663        1       0.00447395      -0.00241028      -0.00295191
C       -1.95052716       8.03130489       9.96731311        2       0.00389914      -0.00195292       0.00351846
Ti      -1.95165490       9.77345248       8.67875340        0       0.00390887      -0.00799208      -0.00167553
Ti      -0.43645672       8.89771165      11.29965514        0       0.00585701      -0.00255961       0.00164813
O       -1.95180575       9.77132060      12.23159545        3       0.00329475       0.00327318      -0.21473871
O       -0.43693559       8.89737816       7.76488971        1       0.00680650       0.00012590      -0.00075393
C        5.61689640       0.14522298       9.96833124        2      -0.00178175      -0.00019114      -0.00220510
Ti       5.62311745       1.90660955       8.69186029        0      -0.00173410      -0.00689188      -0.00186572
Ti       7.11509590       1.01264309      11.26438139        0      -0.00228932      -0.00489388       0.00698537
O        5.61940123       1.89835197      12.23159545        3       0.00229681       0.00079164      -0.18730503
O        7.13867035       1.02451204       7.76557136        1       0.00003231      -0.00038019      -0.00155028
C        4.10882991       2.77346238       9.96634939        2      -0.00165445      -0.00365588      -0.00356985
Ti       4.11216258       4.52686994       8.69808620        0      -0.00234600      -0.00242206      -0.00234807
Ti       5.63053768       3.64169132      11.30485301        0      -0.00195229       0.00285733       0.00162356
O        4.11215917       4.52238503      12.23159545        3      -0.00063540      -0.00100396      -0.17501896
O        5.62548388       3.65093830       7.76977587        1       0.00058204       0.00057306      -0.00314323
C        2.59341105       5.39870981       9.96753464        2       0.00232705      -0.00272859       0.00182607
Ti       2.59738190       7.14555811       8.69558612        0       0.00096199       0.00185087       0.00172671
Ti       4.10950988       6.27339010      11.29713090        0       0.00251789      -0.00555785       0.00380015
O        2.59428393       7.14765178      12.23159545        3       0.00105805       0.00103889      -0.17133828
O        4.10935861       6.27317382       7.76674620        1       0.00115810      -0.00384806      -0.00069750
C        1.07761279       8.02337628       9.96665670        2       0.00402504      -0.00256874       0.00007020
Ti       1.08052791       9.76953410       8.68788280        0      -0.00204565      -0.00506100       0.00367843
Ti       2.59246545       8.89572295      11.29180398        0      -0.00292492       0.00507006       0.00329447
O        1.07602072       9.76785154      12.23159545        3      -0.00028628       0.00048153      -0.21452357
O        2.59308529       8.89646573       7.76577347        1       0.00574997      -0.00352064      -0.00032115
C        8.64611064       0.14370606       9.96663633        2      -0.00063575       0.00270188       0.00020698
Ti       8.64304367       1.89912643       8.69723513        0      -0.00314593       0.00222426      -0.00286875
Ti      10.14133100       1.03203385      11.28919733        0      -0.00238815       0.00601293      -0.00378416
O        8.61140705       1.87142368      12.23159545        3       0.00217483       0.00023098      -0.59015860
O       10.16798863       1.02953995       7.77647453        1      -0.00180298       0.00642238       0.00094167
C        7.13467841       2.76876432       9.96552566        2      -0.00059328       0.00007578      -0.00552289
Ti       7.13836557       4.52498328       8.70412883        0      -0.00023071      -0.00417649      -0.00171044
Ti       8.68889995       3.62828291      11.33898526        0       0.00101115       0.00594555       0.00042827
O        7.14327659       4.52146845      12.23159545        3      -0.00188363       0.00068557      -0.12045023
O        8.65807751       3.64654218       7.78509702        1      -0.00010111      -0.00014108      -0.00534739
C        5.62704392       5.39702268       9.96621069        2       0.00259264      -0.00019351      -0.00228607
Ti       5.62317736       7.14329503       8.69694681        0       0.00297894       0.00643791       0.00197512
Ti       7.14875803       6.27096082      11.30412451        0      -0.00000360      -0.00081910      -0.00061482
O        5.62719724       7.14646251      12.23159545        3       0.00027560      -0.00217105      -0.17479863
O        7.13902478       6.27107194       7.76885271        1      -0.00339761      -0.00015795      -0.00138084
C        4.10925445       8.02311443       9.96677730        2      -0.00099261      -0.00126500       0.00430005
Ti       4.11132609       9.76631602       8.68484779        0       0.00702167       0.00272873      -0.00076654
Ti       5.62298231       8.90139763      11.29085125        0       0.00109417       0.00051905       0.00030378
O        4.10848095       9.77315117      12.23159545        3      -0.00076098      -0.00054169      -0.17851180
O        5.62366451       8.89302403       7.76333138        1      -0.00330823       0.00043118       0.00368692
C        0.71496819      -0.16334857      15.57408531       10       0.00190904      -0.00228150       0.06533933
C        1.92014236       0.54162821      15.58247354       10      -0.00019778      -0.00056058       0.06386716
C       -0.47245431       1.92314536      15.54971464       10       0.00264616      -0.00321785       0.50181446
C        0.71381549       2.63895184      15.55735338       10       0.00190331       0.00101538       0.16108138
C       -1.71643219       4.07507618      15.54970909       10      -0.00004388       0.00003006       0.52644819
C       -0.50639412       4.74890925      15.55735082       10       0.00036750      -0.00070283       0.17425903
C       -2.92931674       6.15042666      15.57408476       10      -0.00015712       0.00131778       0.04219966
C       -1.71696902       6.84351959      15.58247334       10      -0.00188822      -0.00199833       0.01928533
C       -4.14125218       8.24056533      15.57219237       10      -0.00180267       0.00197947       0.03714548
C       -2.92969206       8.94053428      15.58348203       10      -0.00100535       0.00070530       0.00331203
C        3.13128284      -0.15773876      15.58450705       10      -0.00122583       0.00160123       0.05024013
C        4.34160557       0.54193282      15.58348194       10      -0.00362524       0.00555509       0.00323304
C        1.92824785       1.93779823      15.57408552       10       0.00027578      -0.00101033       0.06505023
C        3.13338632       2.64185439      15.56502539       10      -0.00264344       0.00086441       0.07151100
C        0.70922036       4.04453009      15.53122550       10       0.00143145       0.00139032       0.03437474
C        1.91782355       4.74027454      15.54289545       10       0.00099680      -0.00054067       0.05604868
C       -0.50373829       6.15054635      15.57408476       10      -0.00309188      -0.00137641       0.05768708
C        0.70839594       6.84208091      15.56502549       10      -0.00303922      -0.00302892       0.00991938
C       -1.71838919       8.24294793      15.58450726       10      -0.00158376      -0.00232532       0.05535558
C       -0.50610878       8.93992275      15.58348203       10       0.00068915      -0.00166925      -0.00322499
C        5.55145367      -0.15804588      15.58450705       10      -0.00237982       0.00305206       0.05522025
C        6.76391662       0.54070276      15.58247354       10       0.00158565       0.00029377       0.01889439
C        4.34197541       1.94121276      15.57219224       10      -0.00258956       0.00426001       0.03718195
C        5.55167381       2.64108226      15.56502539       10       0.00132622      -0.00263561       0.04755557
C        3.13022552       4.04003514      15.55114189       10      -0.00204345      -0.00142927       0.08663225
C        4.34202502       4.74125891      15.54835403       10      -0.00215987      -0.00073968       0.06719922
C        1.91855993       6.14057121      15.55114179       10      -0.00377671      -0.00216973       0.05132122
C        3.13100427       6.84006603      15.54835392       10      -0.00507613       0.00295491       0.05295058
C        0.70668341       8.23978385      15.57219237       10       0.00348304      -0.00210992       0.05457715
C        1.91786163       8.93735341      15.56502524       10       0.00299131       0.00077405       0.00986702
C        7.97070575      -0.16333369      15.57408531       10       0.00086302      -0.00004793       0.05766376
C        9.18327194       0.53970885      15.55735319       10       0.00002602      -0.00143778       0.17416999
C        6.75779797       1.93708114      15.57408552       10       0.00387724      -0.00001595       0.04210328
C        7.97433954       2.63755159      15.55735338       10       0.00336700      -0.00049411       0.15687402
C        5.55388727       4.04057262      15.55114189       10      -0.00136783      -0.00356898       0.08349975
C        6.76793107       4.74038938      15.54289545       10       0.00082729      -0.00376332       0.05206743
C        4.34245256       6.14049798      15.54527603       10      -0.00200251       0.00292338       0.06746303
C        5.55392519       6.84058643      15.54835392       10       0.00290579       0.00322793       0.06719597
C        3.13043891       8.23992132      15.55114162       10       0.00083902       0.00275190       0.05129226
C        4.34279427       8.94058586      15.54289504       10      -0.00022716       0.00195623       0.05591232
C       10.40106386      -0.16102611      15.53122545       10      -0.00132288       0.00010890       0.03433294
C       11.62058033       0.53787031      15.55735319       10       0.00177600      -0.00404612       0.16104929
C        9.16174556       1.92457750      15.54971464       10       0.00041074      -0.00303088       0.52781408
C       10.40531098       2.64032437      15.30535538       10      -0.00282573      -0.00024225      -0.34055878
C        7.97629486       4.04264520      15.53122550       10       0.00271427      -0.00128627       0.06442510
C        9.19232559       4.74665516      15.55735082       10       0.00045015       0.00181022       0.15686023
C        6.76679780       6.14163684      15.55114179       10       0.00395462      -0.00130161       0.08346891
C        7.97781964       6.84300565      15.56502549       10       0.00166629       0.00251781       0.04814304
C        5.55533267       8.24065187      15.55114162       10       0.00010307       0.00400304       0.08667820
C        6.76769840       8.93707381      15.56502524       10       0.00045203       0.00085805       0.07177493
O       10.33079323       2.68265620      13.87467560       11      -0.00477100       0.00472120      -0.00255702
H       11.13566400       2.21691657      13.43208445       12       0.00525289      -0.00607865      -0.00013748
