132
Lattice="12.12 0.0 0.0 -6.06 10.496227893867395 0.0 0.0 0.0 40.0" Properties=species:S:1:pos:R:3:tags:I:1:forces:R:3 energy=-1208.5053112877042 stress="0.0026980271250061 -8.442622132274305e-06 2.0936804314247186e-06 -8.442622132274305e-06 0.002687538649619758 -1.7046376544303194e-06 2.0936804314247186e-06 -1.7046376544303194e-06 0.0028762727299845464" pbc="T T F"
C       -0.39226865       0.11905065       9.99222711        2      -0.00033377       0.00046243       0.00072775
Ti      -0.38758973       1.87032951       8.70506433        0      -0.00509683       0.00202106       0.00449075
Ti       1.14928696       0.98206511      11.26648188        0      -0.00190553       0.00331036       0.00116890
O       -0.30942159       1.82307742      12.23008024        3       0.00012769       0.00404511      -0.63066505
O        1.12405316       0.99752782       7.76608896        1       0.00052968      -0.00438029       0.00180219
C       -1.90521848       2.74614478      10.02225410        2       0.00132862       0.00348970      -0.00160658
Ti      -1.90833058       4.49657084       8.71480750        0       0.00281446      -0.00212969       0.00035512
Ti      -0.37887455       3.65225046      11.23362636        0       0.00349203      -0.00088483      -0.00074214
O       -1.89714975       4.57830962      12.23008024        3      -0.00155324       0.00801989      -0.96088324
O       -0.39388897       3.61998029       7.76620816        1      -0.00182222      -0.00217543       0.00298331
C       -3.41897195       5.36643932      10.00731282        2       0.00039648      -0.00028168      -0.00012918
Ti      -3.41847831       7.11901041       8.70793530        0       0.00441208       0.00215147       0.00501284
Ti      -1.90796510       6.25577051      11.29732273        0       0.00488864      -0.00219217      -0.00088032
O       -3.42428782       7.12715766      12.23008024        3      -0.00175636       0.00069138      -0.25344754
O       -1.90309659       6.24122271       7.77211473        1      -0.00118944      -0.00221896       0.00155102
C       -4.93321195       7.99262662       9.99757171        2      -0.00244866       0.00496246       0.00560338
Ti      -4.93441274       9.74024494       8.70294021        0       0.00204577       0.00071700       0.00074141
Ti      -3.41896558       8.86872598      11.29030218        0       0.00098890      -0.00100534      -0.00033854
O       -4.93224050       9.73638432      12.23008024        3      -0.00474420      -0.00071194      -0.32124751
O       -3.41963476       8.86413912       7.76436115        1      -0.00151372       0.00157168      -0.00001881
C        2.64606331       0.11818044       9.99150999        2       0.00209737      -0.00007024      -0.00037138
Ti       2.64304548       1.87149634       8.70375566        0       0.00226862       0.00370696      -0.00161811
Ti       4.15650253       0.99604699      11.29073979        0      -0.00406011      -0.00110814      -0.00094710
O        2.64683950       1.87222356      12.23008024        3       0.00089921       0.00184414      -0.31857187
O        4.15909320       0.99871070       7.76480669        1       0.00147437       0.00100332       0.00247899
C        1.12534047       2.74932102       9.99267698        2       0.00455521       0.00173621       0.00270956
Ti       1.12996520       4.49484503       8.69810121        0      -0.00111426      -0.00213259      -0.00140020
Ti       2.64055967       3.62070769      11.29957690        0       0.00366955      -0.00155069      -0.00196950
O        1.12890390       4.49409878      12.23008024        3       0.00229484       0.00055250      -0.27597056
O        2.64287358       3.62092619       7.76601263        1       0.00269815       0.00309517      -0.00089490
C       -0.38448605       5.36862682       9.99847638        2      -0.00138843      -0.00297503       0.00325489
Ti      -0.38774473       7.11953633       8.70850678        0      -0.00240239      -0.00094596      -0.00205100
Ti       1.13060476       6.24524540      11.29747020        0      -0.00007397      -0.00010456      -0.00071184
O       -0.38221969       7.12650532      12.23008024        3       0.00485562      -0.00210837      -0.27521145
O        1.12644671       6.24514173       7.76734847        1       0.00299753      -0.00356129      -0.00063230
C       -1.90309930       8.00133545       9.99266518        2       0.00363847      -0.00438272       0.00107663
Ti      -1.90276428       9.74195096       8.70162054        0       0.00494703      -0.00163997      -0.00147972
Ti      -0.38931838       8.86895094      11.28901827        0      -0.00272300      -0.00030439       0.00308817
O       -1.90415453       9.74262931      12.23008024        3       0.00088067       0.00293022      -0.31309417
O       -0.38555593       8.86662596       7.76453123        1       0.00034737      -0.00045225       0.00013842
C        5.66602391       0.11671970       9.99334387        2      -0.00538895      -0.00029395      -0.00131140
Ti       5.67130256       1.86962236       8.70919878        0       0.00156043      -0.00338504       0.00013762
Ti       7.17641258       0.99348972      11.29795246        0      -0.00435610      -0.00126083      -0.00228344
O        5.66179562       1.87083863      12.23008024        3       0.00010578      -0.00075906      -0.24719709
O        7.18941578       0.99709293       7.77275905        1      -0.00029881       0.00024819       0.00235088
C        4.15706561       2.74442269       9.99862816        2      -0.00420020       0.00406045       0.00103345
Ti       4.15945346       4.49381824       8.70910276        0      -0.00374231      -0.00177673       0.00392649
Ti       5.67159687       3.61975861      11.29074043        0       0.00059785      -0.00156239      -0.00375894
O        4.15586003       4.49562222      12.23008024        3      -0.00068185      -0.00156807      -0.26856912
O        5.67530250       3.62012245       7.77237377        1      -0.00065730       0.00124564      -0.00107308
C        2.64280696       5.37001604       9.99917941        2       0.00134778      -0.00397830       0.00124536
Ti       2.64272792       7.11794515       8.70907730        0      -0.00371639       0.00007860       0.00224487
Ti       4.15864198       6.24205100      11.28847683        0       0.00237935      -0.00140171      -0.00177768
O        2.64462086       7.11612866      12.23008024        3       0.00103736       0.00155933      -0.24394113
O        4.15807846       6.24257243       7.76965444        1      -0.00092656      -0.00063853      -0.00415695
C        1.12674047       7.99323455       9.99855294        2       0.00242486      -0.00354111       0.00027690
Ti       1.12629425       9.74166658       8.70887519        0       0.00023235       0.00303951      -0.00341273
Ti       2.64327204       8.86286111      11.29762903        0      -0.00235922       0.00196440      -0.00032768
O        1.12410095       9.73247269      12.23008024        3      -0.00222263       0.00155881      -0.27160008
O        2.64081968       8.86731467       7.76750426        1       0.00086946      -0.00005927      -0.00148745
C        8.70493939       0.11771106       9.99910334        2      -0.00363396       0.00061551      -0.00450558
Ti       8.69790116       1.87401248       8.71541738        0       0.00044884      -0.00321566      -0.00173514
Ti      10.19497896       0.97016817      11.23370481        0      -0.00501853       0.00124879       0.00146315
O        8.63461965       1.82320174      12.23008024        3      -0.00406962       0.00041494      -0.94074426
O       10.21392631       1.00076834       7.76660307        1       0.00019809      -0.00047324       0.00074140
C        7.18949789       2.74669802      10.00810356        2      -0.00396744       0.00260980      -0.00285406
Ti       7.18832250       4.49323458       8.71908645        0       0.00092632       0.00016360       0.00376806
Ti       8.71504313       3.61253088      11.33660714        0      -0.00252032      -0.00173604       0.00231689
O        7.18642676       4.49488536      12.23008024        3      -0.00068097      -0.00122433      -0.16979163
O        8.70454143       3.61815745       7.77650747        1       0.00094200      -0.00148413      -0.00261281
C        5.67311921       5.36785905      10.00265222        2       0.00239047      -0.00064901      -0.00610895
Ti       5.67303110       7.11611253       8.70852319        0       0.00073982       0.00051586       0.00397649
Ti       7.18630159       6.24396118      11.28974328        0       0.00156002      -0.00054124      -0.00070741
O        5.66961464       7.11793824      12.23008024        3       0.00507941       0.00154812      -0.27112065
O        7.18795757       6.24016577       7.77173342        1      -0.00323351      -0.00193925      -0.00119468
C        4.15668331       7.99117409       9.99888910        2       0.00048824      -0.00029787       0.00227425
Ti       4.15798980       9.73967178       8.69801358        0       0.00057802       0.00230519      -0.00156255
Ti       5.67055965       8.86667992      11.29871740        0       0.00165548       0.00196539       0.00133814
O        4.15872665       9.73930718      12.23008024        3       0.00020978       0.00261878      -0.27799385
O        5.67064742       8.86553091       7.76512117        1       0.00233544       0.00018077       0.00043958
C        0.63908717      -0.11599451      15.43046483       10      -0.00175139      -0.00212203       0.06750411
C        1.84816608       0.58633812      15.43885306       10      -0.00171249      -0.00062983       0.09144959
C       -0.55158519       1.97181704      15.40609416       10       0.00008444      -0.00090672       0.91539741
C        0.63454256       2.68415500      15.41373290       10       0.00096400      -0.00074254       0.15858158
C       -1.78898122       4.12041736      15.40608861       10       0.00050871      -0.00170821       0.80719396
C       -0.57949773       4.79199930      15.41373034       10       0.00038274      -0.00093026       0.13340068
C       -3.00376329       6.19461978      15.43046428       10       0.00045362      -0.00039256       0.06321517
C       -1.79103298       6.89025451      15.43885286       10      -0.00086714       0.00079436       0.09294012
C       -4.21531240       8.28532969      15.42857189       10       0.00341766       0.00047361       0.10022386
C       -3.00332154       8.98527342      15.43986155       10       0.00356224       0.00160732       0.06441089
C        3.05876674      -0.11270657      15.44088657       10      -0.00089841       0.00088979       0.09981639
C        4.26886638       0.58793055      15.43986146       10      -0.00206184      -0.00063273       0.06425021
C        1.85178315       1.98458092      15.43046504       10       0.00116815      -0.00215042       0.06752017
C        3.05798329       2.68718097      15.42140491       10      -0.00111435       0.00066213       0.06634650
C        0.63259947       4.08707417      15.38760502       10      -0.00038492      -0.00131998       0.25380187
C        1.84275451       4.78555218      15.39927497       10      -0.00051263      -0.00084725       0.03145935
C       -0.57804105       6.19543347      15.43046428       10       0.00233718      -0.00087658       0.06308521
C        0.63322579       6.88792578      15.42140501       10       0.00058045      -0.00079690       0.07609019
C       -1.79164046       8.28763190      15.44088678       10       0.00225202      -0.00004952       0.12054455
C       -0.57983832       8.98546185      15.43986155       10      -0.00119608       0.00047154       0.07007865
C        5.47894677      -0.11249706      15.44088657       10      -0.00242250       0.00010539       0.12161484
C        6.68943753       0.58567603      15.43885306       10      -0.00129459       0.00046321       0.09278975
C        4.26900625       1.98749385      15.42857176       10      -0.00040417      -0.00221931       0.10030183
C        5.47974091       2.68673596      15.42140491       10      -0.00095727       0.00103742       0.08123425
C        3.05692717       4.08665122      15.40752141       10       0.00102235      -0.00105181       0.04738463
C        4.26933304       4.78574156      15.40473355       10      -0.00118761       0.00190289       0.11254667
C        1.84446999       6.18638548      15.40752131       10       0.00339052       0.00094802       0.04896689
C        3.05646801       6.88583336      15.40473344       10       0.00195572       0.00126570       0.10284174
C        0.63198836       8.28589059      15.42857189       10       0.00047129      -0.00129299       0.10229961
C        1.84339251       8.98366193      15.42140476       10      -0.00097924       0.00018136       0.07619491
C        7.89776232      -0.11730086      15.43046483       10      -0.00182607      -0.00186734       0.06339520
C        9.11241641       0.58576136      15.41373271       10      -0.00286575      -0.00078366       0.13296184
C        6.68543563       1.98373160      15.43046504       10      -0.00152081       0.00053415       0.06347336
C        7.90176869       2.68339878      15.41373290       10      -0.00057901       0.00005002       0.09591886
C        5.48151322       4.08623709      15.40752141       10      -0.00059660      -0.00051111       0.04193788
C        6.69517752       4.78515664      15.39927497       10      -0.00149942       0.00085628       0.02978078
C        4.26921490       6.18562775      15.40165555       10       0.00196032       0.00179669       0.03079671
C        5.48158930       6.88556384      15.40473344       10      -0.00085422       0.00254386       0.11300537
C        3.05637861       8.28521722      15.40752114       10       0.00224953       0.00024732       0.04847359
C        4.26865524       8.98724969      15.39927456       10       0.00070611       0.00198581       0.03201782
C       10.32882713      -0.11160665      15.38760497       10      -0.00067270       0.00019450       0.25335798
C       11.54467814       0.58837980      15.41373271       10      -0.00120933      -0.00124994       0.15865396
C        9.08915946       1.96903337      15.40609416       10       0.00107923       0.00020514       0.80582271
C       10.33021850       2.68674115      15.16173490       10      -0.00063489      -0.00112920      -0.71551773
C        7.90505370       4.08669181      15.38760502       10       0.00147413       0.00082950       0.25475527
C        9.11861651       4.79138603      15.41373034       10      -0.00109641       0.00001514       0.09600077
C        6.69353374       6.18568041      15.40752131       10      -0.00040365       0.00173446       0.04159069
C        7.90454361       6.88714890      15.42140501       10      -0.00097461       0.00108636       0.08152980
C        5.48088999       8.28514799      15.40752114       10       0.00265783       0.00139421       0.04661170
C        6.69326735       8.98425918      15.42140476       10       0.00408186      -0.00049288       0.06674827
O       10.25840505       2.72797637      13.73385420       11      -0.00568050      -0.00432086      -0.00388994
H       11.05503490       2.26255505      13.27219849       12       0.00044380      -0.00040202       0.00108408
