132
Lattice="12.12 0.0 0.0 -6.06 10.496227893867395 0.0 0.0 0.0 40.0" Properties=species:S:1:pos:R:3:tags:I:1:forces:R:3 energy=-1209.2133148075575 stress="0.0028318232625742143 3.026754575801047e-06 -2.6777462050616543e-06 3.026754575801047e-06 0.002836307360389286 3.475549625575902e-06 -2.6777462050616543e-06 3.475549625575902e-06 0.0020843094962144128" pbc="T T F"
C       -0.00103521       0.00514707      10.00370587        2      -0.00196192       0.00058939       0.00163465
Ti      -0.00088743       1.75378655       8.71497537        0      -0.00231290       0.00197394      -0.00060109
Ti       1.51329524       0.87975798      11.29082528        0       0.00223763      -0.00101080       0.00199680
O        0.00041219       1.75434358      12.23008024        3       0.00244715      -0.00090188       0.08071247
O        1.51218318       0.88030612       7.77210513        1       0.00274908      -0.00147480       0.00185806
C       -1.51660076       2.62909250      10.00720856        2      -0.00016584       0.00035261       0.00030262
Ti      -1.51641514       4.37879767       8.71328485        0      -0.00091365      -0.00021038       0.00308835
Ti      -0.00486071       3.50382418      11.30151643        0       0.00434636       0.00161495       0.00071914
O       -1.51714025       4.38089089      12.23008024        3      -0.00096343       0.00087475       0.07183525
O       -0.00252231       3.50317935       7.77482810        1       0.00110610       0.00125056      -0.00020592
C       -3.03187017       5.25431010      10.00261169        2      -0.00021715       0.00069385       0.00286498
Ti      -3.03186045       7.00305755       8.71063951        0       0.00091510      -0.00132162       0.00182563
Ti      -1.51711245       6.12804762      11.29224594        0      -0.00035671       0.00283888       0.00243826
O       -3.03203103       7.00242596      12.23008024        3      -0.00163730       0.00205024       0.09308420
O       -1.51670040       6.12664017       7.77219818        1       0.00049572       0.00295435       0.00150461
C       -4.54649395       7.87762335      10.00133320        2      -0.00203578      -0.00060710      -0.00012621
Ti      -4.54649347       9.62640207       8.71052815        0      -0.00177859       0.00181792       0.00347025
Ti      -3.03185471       8.75169381      11.29178699        0       0.00189937       0.00148816      -0.00180539
O       -4.54623603       9.62576545      12.23008024        3       0.00102072      -0.00054596       0.10407024
O       -3.03181620       8.75216730       7.77119785        1      -0.00118476       0.00008108      -0.00175756
C        3.02870127       0.00486172      10.00151086        2       0.00002143      -0.00003182      -0.00136183
Ti       3.02855437       1.75431724       8.71074821        0      -0.00252657       0.00122656       0.00176256
Ti       4.54338666       0.87996975      11.29207840        0       0.00025098      -0.00163745      -0.00238570
O        3.02866785       1.75485905      12.23008024        3       0.00205100       0.00014473       0.09910068
O        4.54351455       0.88014070       7.77148771        1      -0.00131783      -0.00101306      -0.00166244
C        1.51368652       2.62864317      10.00300309        2      -0.00120213       0.00190768       0.00214529
Ti       1.51279741       4.37799891       8.71269556        0       0.00065544       0.00104346       0.00108379
Ti       3.02759111       3.50361195      11.29177696        0       0.00205101       0.00075079       0.00026341
O        1.51521303       4.37991734      12.23008024        3       0.00175935       0.00121869       0.10501033
O        3.02796022       3.50393005       7.77205791        1      -0.00131825      -0.00005098       0.00051381
C       -0.00188294       5.25331947      10.00325832        2       0.00008412       0.00002554       0.00296086
Ti      -0.00187481       7.00280007       8.71100311        0       0.00033032      -0.00154431       0.00294966
Ti       1.51276009       6.12783564      11.29169105        0       0.00101478       0.00183289      -0.00036007
O       -0.00098361       7.00353024      12.23008024        3      -0.00075772       0.00154785       0.11191606
O        1.51306385       6.12755796       7.77220419        1      -0.00038514      -0.00055323       0.00165530
C       -1.51695658       7.87811261      10.00120631        2       0.00082369      -0.00052057      -0.00038545
Ti      -1.51668978       9.62673425       8.71220770        0       0.00021587      -0.00025533      -0.00882405
Ti      -0.00160915       8.75217775      11.29153735        0      -0.00213483       0.00124287      -0.00115699
O       -1.51694584       9.62634118      12.23008024        3       0.00075983       0.00033239       0.10049349
O       -0.00099246       8.75196627       7.77198489        1      -0.00204681       0.00099084      -0.00148742
C        6.05712606       0.00495626      10.00178519        2       0.00150429       0.00026269      -0.00070674
Ti       6.05799207       1.75427178       8.71126793        0       0.00081020       0.00014866       0.00082523
Ti       7.57288193       0.88066176      11.29294930        0      -0.00196968      -0.00093398       0.00117171
O        6.05781252       1.75553567      12.23008024        3      -0.00166779       0.00104421       0.11692704
O        7.57473233       0.88033672       7.77319679        1      -0.00348206      -0.00098594       0.00118357
C        4.54307403       2.62880500      10.00151997        2      -0.00089482       0.00207453      -0.00038020
Ti       4.54301357       4.37854240       8.71171834        0       0.00124529      -0.00014542      -0.00314099
Ti       6.05815232       3.50373191      11.29054242        0      -0.00416031       0.00028050      -0.00116414
O        4.54321931       4.37897668      12.23008024        3      -0.00036838       0.00078438       0.11531430
O        6.05842386       3.50408243       7.77203115        1       0.00138089      -0.00061748       0.00149794
C        3.02795081       5.25305884      10.00204079        2       0.00106129       0.00132480       0.00018201
Ti       3.02796616       7.00278381       8.71169923        0       0.00082259       0.00020159      -0.00088389
Ti       4.54325494       6.12814667      11.29290883        0      -0.00128359       0.00040893      -0.00104766
O        3.02809012       7.00226502      12.23008024        3       0.00039994       0.00010325       0.10920318
O        4.54299511       6.12804417       7.77239452        1       0.00112944      -0.00028743      -0.00108467
C        1.51302250       7.87752892      10.00182026        2       0.00092605      -0.00051478       0.00020305
Ti       1.51321989       9.62663314       8.71174920        0       0.00030970       0.00132772       0.00090757
Ti       3.02783486       8.75304604      11.29280639        0      -0.00141946      -0.00217797      -0.00081314
O        1.51221281       9.62558825      12.23008024        3      -0.00078562       0.00019512       0.10314232
O        3.02867152       8.75254536       7.77300017        1      -0.00054549       0.00171414       0.00093051
C        9.08820399       0.00576787      10.00494507        2       0.00062545       0.00061661       0.00317909
Ti       9.08837791       1.75409612       8.71468228        0      -0.00054402       0.00157067       0.00351250
Ti      10.60176336       0.88322235      11.30395395        0       0.00078252      -0.00340567      -0.00082526
O        9.08525927       1.75689019      12.23008024        3      -0.00211646       0.00185167       0.09511070
O       10.60321765       0.88040586       7.77571973        1      -0.00031701      -0.00028329      -0.00106400
C        7.57276832       2.62916889      10.00331750        2      -0.00021050       0.00072132       0.00169369
Ti       7.57323526       4.37861647       8.71166022        0      -0.00008629       0.00056549       0.00419280
Ti       9.08960521       3.50473724      11.29658108        0      -0.00237234       0.00119137       0.00287387
O        7.57158326       4.37887966      12.23008024        3      -0.00387305       0.00132843       0.12376331
O        9.08889747       3.50331119       7.77436909        1      -0.00075504       0.00064757       0.00191295
C        6.05841988       5.25329990      10.00206742        2      -0.00152934       0.00129890      -0.00034994
Ti       6.05808113       7.00277414       8.71188965        0       0.00070617      -0.00033376      -0.00368139
Ti       7.57348636       6.12858241      11.29089469        0      -0.00113765       0.00277129      -0.00168639
O        6.05821516       7.00298875      12.23008024        3      -0.00123347       0.00045196       0.09332735
O        7.57289616       6.12775503       7.77180434        1       0.00176469      -0.00093945       0.00080303
C        4.54319729       7.87773366      10.00249279        2      -0.00042732      -0.00088410      -0.00082851
Ti       4.54351721       9.62716102       8.71403185        0      -0.00034623       0.00017909      -0.00143924
Ti       6.05810724       8.75298932      11.29177403        0       0.00077881      -0.00221967       0.00065750
O        4.54305067       9.62468310      12.23008024        3      -0.00097983      -0.00218301       0.10900289
O        6.05770299       8.75222116       7.77242850        1      -0.00010964       0.00287768       0.00064960
C        0.07037971       0.04905640      17.41993852       10      -0.00296706      -0.00035395      -0.02385877
C        1.27953441       0.75097839      17.42832675       10       0.00099179       0.00142469       0.00025542
C       -1.12485888       2.13922748      17.39556785       10      -0.00444710       0.00044070       0.52184716
C        0.06731341       2.84900214      17.40320659       10      -0.00511125      -0.00270703       0.01146729
C       -2.36080988       4.27577894      17.39556230       10      -0.00044932      -0.00258799       0.21857533
C       -1.14915589       4.95393440      17.40320403       10      -0.00322088      -0.00170902       0.02070523
C       -3.57247844       6.35765472      17.41993797       10       0.00639175      -0.00681790       0.00010470
C       -2.35977352       7.05376022      17.42832655       10       0.00171938       0.00122386       0.00032132
C       -4.78303994       8.45048848      17.41804558       10      -0.00376924      -0.00462927      -0.01176179
C       -3.57136510       9.14990244      17.42933524       10       0.00023247      -0.00018027      -0.02764440
C        2.48999735       0.05209804      17.43036026       10      -0.00213947       0.00229606      -0.02043627
C        3.70021917       0.75274177      17.42933515       10       0.00072872      -0.00268913      -0.03896147
C        1.28271240       2.14920772      17.41993873       10      -0.00072961       0.00114158      -0.02912950
C        2.48976371       2.85195491      17.41087860       10       0.00045467      -0.00066495      -0.04409310
C        0.06406949       4.25153836      17.37707871       10      -0.00418726      -0.00348159       0.13142976
C        1.27478840       4.95073430      17.38874866       10      -0.00241953      -0.00114242      -0.08417802
C       -1.14743963       6.35648502      17.41993797       10       0.00034987      -0.00421030      -0.00544661
C        0.06459421       7.05173234      17.41087870       10       0.00158199       0.00102896      -0.03279484
C       -2.35960570       8.45189497      17.43036047       10      -0.00172263       0.00013069      -0.03501953
C       -1.14778248       9.14993426      17.42933524       10       0.00158025      -0.00149535      -0.03863417
C        4.91056094       0.05226505      17.43036026       10       0.00253012       0.00278881      -0.03723191
C        6.12135654       0.75140309      17.42832675       10       0.00252334      -0.00338387       0.00520953
C        3.69995617       2.15181940      17.41804545       10       0.00484489       0.00132012      -0.01425923
C        4.91048949       2.85183558      17.41087860       10       0.00477790       0.00068583      -0.02698737
C        2.48815104       4.25131761      17.39699510       10      -0.00076348      -0.00183551      -0.05283513
C        3.69992011       4.95125106      17.39420724       10      -0.00289097       0.00208318      -0.01484948
C        1.27623847       6.35137308      17.39699500       10      -0.00144238      -0.00277446      -0.03813561
C        2.48810794       7.05100961      17.39420713       10      -0.00147072       0.00075374      -0.02135665
C        0.06374469       8.45029187      17.41804558       10       0.00391422      -0.00000715      -0.00726376
C        1.27534016       9.14897956      17.41087845       10       0.00356087      -0.00224698      -0.04809422
C        7.33138527       0.04996397      17.41993852       10       0.00417631       0.00051657      -0.00770938
C        8.54522441       0.75298413      17.40320640       10       0.00227345      -0.00058682       0.01737063
C        6.11804145       2.14975365      17.41993873       10       0.00295884      -0.00134016       0.00236133
C        7.33326074       2.84962625      17.40320659       10       0.00367653      -0.00193375       0.00559078
C        4.91193910       4.25126218      17.39699510       10      -0.00126019       0.00073362      -0.04765520
C        6.12543994       4.95071166      17.38874866       10       0.00182157       0.00147547      -0.04939934
C        3.70006556       6.35101593      17.39112924       10      -0.00115117       0.00019190      -0.04903795
C        4.91210391       7.05104648      17.39420713       10       0.00114672       0.00241079      -0.02668176
C        2.48800631       8.45041113      17.39699483       10       0.00354113       0.00108521      -0.04288698
C        3.70034376       9.15217601      17.38874825       10       0.00133144       0.00188109      -0.06745372
C        9.76071854       0.05416141      17.37707866       10      -0.00128802       0.00121237       0.13188796
C       10.97686262       0.75227705      17.40320640       10      -0.00042575       0.00186419       0.02286475
C        8.52651401       2.14078185      17.39556785       10       0.00132190      -0.00174734       0.26536430
C        9.75858712       2.85215577      17.15120859       10      -0.00275909      -0.00001116      -2.04098037
C        7.33623752       4.25188037      17.37707871       10      -0.00138568      -0.00408918       0.12819947
C        8.54923220       4.95525824      17.40320403       10      -0.00405454      -0.00241896       0.00204360
C        6.12425378       6.35140867      17.39699500       10       0.00113299      -0.00010852      -0.04019973
C        7.33567061       7.05210393      17.41087870       10       0.00415281      -0.00177347      -0.04032134
C        4.91267047       8.45049763      17.39699483       10      -0.00354160       0.00116992      -0.04431454
C        6.12551677       9.14851080      17.41087845       10       0.00229961       0.00158788      -0.02999720
O        9.84447859       2.81420021      15.56881954       11       0.00380078      -0.00125186      -0.00230644
H        9.01936478       3.16100836      15.18480330       12       0.00013099      -0.00046519       0.00410509
