132
Lattice="12.12 0.0 0.0 -6.06 10.496227893867395 0.0 0.0 0.0 40.0" Properties=species:S:1:pos:R:3:tags:I:1:forces:R:3 energy=-1209.9216441527533 stress="0.0027808696127216296 -3.333234489324516e-06 -1.2245312955209801e-06 -3.333234489324516e-06 0.002771950415070893 -6.768350093639658e-06 -1.2245312955209801e-06 -6.768350093639658e-06 0.0024845435469993144" pbc="T T F"
C        0.00058140      -0.00044781       9.99760511        2       0.00183602      -0.00381072       0.00016024
Ti      -0.00051592       1.75204280       8.69700023        0       0.00070856      -0.00054792       0.00303906
Ti       1.51152242       0.87836690      11.31539867        0      -0.00073105      -0.00035644      -0.00011705
O        0.00044975       1.74320684      12.23159545        3       0.00227430       0.00015209       0.01053660
O        1.51190945       0.87878432       7.77368157        1      -0.00045135      -0.00090142       0.00029637
C       -1.51756177       2.62712765      10.01649798        2       0.00061581      -0.00015263      -0.00161356
Ti      -1.51638036       4.37928108       8.70594864        0       0.00021830      -0.00146571       0.00044619
Ti      -0.00945911       3.49861449      11.32476061        0      -0.00039921       0.00023128      -0.00415367
O       -1.51477379       4.38124186      12.23159545        3       0.00130361      -0.00105281      -0.16159591
O       -0.00474154       3.50278398       7.77940823        1       0.00055137      -0.00131415      -0.00088427
C       -3.03300771       5.25141161      10.01233750        2      -0.00042379       0.00165501      -0.00101569
Ti      -3.03312582       7.00147777       8.70254604        0      -0.00062441      -0.00235394       0.00087300
Ti      -1.51639663       6.12466802      11.31603445        0       0.00006585      -0.00036438      -0.00230737
O       -3.03160910       7.00280547      12.23159545        3       0.00084077       0.00105105       0.01230453
O       -1.51871743       6.12418986       7.77839560        1       0.00006759      -0.00031165       0.00029563
C       -4.54719493       7.87621739      10.00542105        2      -0.00230301       0.00066492       0.00072152
Ti      -4.54772041       9.62371371       8.69732894        0      -0.00086472      -0.00092278       0.00100475
Ti      -3.03402749       8.75013674      11.31493916        0       0.00069809       0.00014391      -0.00003474
O       -4.55000339       9.62606767      12.23159545        3      -0.00019566      -0.00131636       0.01670485
O       -3.03335742       8.74662859       7.77214127        1      -0.00015273       0.00065039      -0.00167734
C        3.02699529       0.00234424      10.00328080        2      -0.00004314      -0.00125397       0.00085854
Ti       3.02694607       1.75388061       8.70227623        0      -0.00030340      -0.00096553       0.00086388
Ti       4.54312674       0.87678864      11.31816615        0       0.00026983      -0.00213818       0.00117678
O        3.02583808       1.75045720      12.23159545        3       0.00121457      -0.00136479       0.00078278
O        4.54256634       0.87961941       7.77374322        1      -0.00098482      -0.00209457      -0.00050571
C        1.51359001       2.62603869      10.00325515        2       0.00354662      -0.00195161       0.00024142
Ti       1.51254141       4.37527938       8.70472293        0       0.00000365      -0.00006778       0.00014373
Ti       3.02504709       3.50104027      11.32125651        0      -0.00047846      -0.00078347      -0.00033500
O        1.50974049       4.37379955      12.23159545        3       0.00250447      -0.00026862       0.00837508
O        3.02790975       3.50373170       7.77781128        1       0.00083906      -0.00332090      -0.00059967
C       -0.00274151       5.25148749      10.00757273        2       0.00093423       0.00190174      -0.00184872
Ti      -0.00243052       7.00033609       8.70039790        0       0.00001157      -0.00106878       0.00043236
Ti       1.51018819       6.12504528      11.31947355        0       0.00131898      -0.00055774      -0.00074379
O       -0.00247385       7.00144008      12.23159545        3       0.00011773       0.00298696       0.01606247
O        1.51235757       6.12420968       7.77726754        1      -0.00050303       0.00040918      -0.00017790
C       -1.51791417       7.87798062      10.00248801        2       0.00031330       0.00169717       0.00045070
Ti      -1.51887004       9.62431111       8.69597478        0       0.00042269      -0.00185105       0.00130028
Ti      -0.00019667       8.75056119      11.31315624        0      -0.00029244      -0.00010314      -0.00062401
O       -1.51818596       9.62373468      12.23159545        3       0.00002653      -0.00052811      -0.01848881
O       -0.00332814       8.74755155       7.77126461        1      -0.00138276       0.00044603      -0.00089786
C        6.05195753      -0.00143802       9.99949088        2      -0.00196321      -0.00250303       0.00089868
Ti       6.05480607       1.75126542       8.70207068        0      -0.00052579      -0.00105365       0.00195260
Ti       7.57234301       0.87531277      11.30248827        0       0.00309846       0.00179524      -0.00001937
O        6.05704724       1.74627926      12.23159545        3      -0.00048564      -0.00156193       0.02367371
O        7.57264820       0.87956039       7.77639256        1      -0.00007814      -0.00095220       0.00281368
C        4.54138172       2.62561319      10.00657694        2      -0.00157933      -0.00115144       0.00175784
Ti       4.54240796       4.37638430       8.70446507        0       0.00019674      -0.00180317       0.00147230
Ti       6.05891792       3.49706643      11.32347709        0       0.00070871      -0.00051631      -0.00099488
O        4.54148974       4.37491162      12.23159545        3      -0.00012290      -0.00163353       0.02086382
O        6.05847048       3.50222432       7.78056250        1      -0.00150364      -0.00316824       0.00151055
C        3.02765364       5.25115282      10.00753690        2       0.00066080      -0.00030610       0.00060920
Ti       3.02781210       6.99912787       8.70000779        0      -0.00086138      -0.00051853       0.00402664
Ti       4.54152820       6.12510922      11.32011437        0       0.00011760      -0.00078227       0.00092093
O        3.02635182       7.00239140      12.23159545        3      -0.00051313      -0.00008792      -0.00623329
O        4.54325887       6.12415398       7.77749757        1      -0.00087647      -0.00126238       0.00012193
C        1.51246843       7.87545988      10.00298985        2       0.00125946      -0.00062552       0.00191268
Ti       1.51052792       9.62219884       8.69573850        0      -0.00065799      -0.00050219       0.00203921
Ti       3.02740148       8.75321214      11.31288387        0       0.00056653      -0.00046413       0.00039018
O        1.51248502       9.62458021      12.23159545        3      -0.00214189      -0.00119302      -0.00200943
O        3.02736712       8.74792253       7.77295604        1      -0.00178057      -0.00041495       0.00076733
C        9.08655971      -0.00077705      10.00125590        2      -0.00062200      -0.00263577      -0.00119192
Ti       9.08680276       1.75050650       8.69760915        0       0.00089685       0.00070451       0.00227760
Ti      10.60740307       0.87505031      11.29015556        0      -0.00079064       0.00071471      -0.00276527
O        9.09164080       1.73805574      12.23159545        3       0.00436395       0.00132890       0.08379380
O       10.60106666       0.88008682       7.77426751        1       0.00109932      -0.00091342       0.00106179
C        7.57282338       2.62578782      10.01329671        2      -0.00148533      -0.00064898      -0.00109821
Ti       7.57035338       4.37754681       8.70603027        0      -0.00047021      -0.00104415      -0.00070816
Ti       9.09435883       3.50135883      11.32651138        0      -0.00074737       0.00013123      -0.00808271
O        7.57054420       4.37572483      12.23159545        3      -0.00191735       0.00160985      -0.00441668
O        9.08733031       3.50178575       7.78573194        1      -0.00011415      -0.00113974      -0.00222518
C        6.05750857       5.25016205      10.00928830        2      -0.00185428       0.00038958      -0.00088019
Ti       6.05720788       6.99985858       8.70440174        0      -0.00039708      -0.00157263       0.00077965
Ti       7.57414822       6.12316492      11.32620991        0       0.00047088       0.00094069      -0.00177376
O        6.05771050       7.00250969      12.23159545        3       0.00063909      -0.00020574       0.00797616
O        7.57276084       6.12338805       7.78013240        1      -0.00023838       0.00159028       0.00052334
C        4.54253011       7.87458131      10.00414840        2       0.00001638      -0.00071748       0.00149651
Ti       4.54334941       9.62311876       8.69604456        0      -0.00121009      -0.00041227       0.00086087
Ti       6.05383423       8.75161268      11.31955857        0      -0.00120078      -0.00075930      -0.00021258
O        4.54563452       9.62628764      12.23159545        3       0.00134797      -0.00231729       0.00978893
O        6.05752451       8.74684884       7.77358599        1       0.00086102      -0.00055540      -0.00011210
C        0.06626365       0.06842620      16.42671689       10       0.00695074       0.00562146      -0.01662147
C        1.27143696       0.77256407      16.43510512       10       0.00005967       0.00072646       0.03013015
C       -1.12682381       2.15630917      16.40234622       10      -0.00031314      -0.00118123       0.35695931
C        0.06084463       2.87034413      16.40998496       10      -0.00139172       0.00020508       0.05665859
C       -2.36512768       4.31139871      16.40234067       10       0.00016095       0.00138355       0.68502555
C       -1.15416813       4.98012795      16.40998240       10      -0.00118850       0.00055578       0.02149123
C       -3.57921142       6.38493410      16.42671634       10       0.00266519      -0.00154145       0.00437741
C       -2.36759553       7.07725953      16.43510492       10      -0.00077133       0.00336325      -0.00747401
C       -4.79037372       8.47359809      16.42482395       10       0.00293246       0.00027299      -0.01186296
C       -3.57881813       9.17280673      16.43611361       10      -0.00757210      -0.00288119       0.00430282
C        2.48291342       0.07340747      16.43713863       10       0.00051652       0.00095374       0.00106108
C        3.69165208       0.77360629      16.43611352       10       0.00151351      -0.00068570       0.00567853
C        1.27632701       2.16783515      16.42671710       10      -0.00011245       0.00316298      -0.01527024
C        2.48196582       2.87248611      16.41765697       10       0.00008867       0.00172371       0.01617635
C        0.06148221       4.27463892      16.38385708       10       0.00140797       0.00054265       0.00080758
C        1.26856850       4.97223097      16.39552703       10       0.00135629       0.00120070      -0.03088515
C       -1.15430609       6.38403760      16.42671634       10      -0.00105562       0.00048402       0.02508560
C        0.05769632       7.07489336      16.41765707       10      -0.00193520       0.00141905      -0.01795136
C       -2.36775308       8.47617633      16.43713884       10      -0.00097661       0.00581187       0.01549477
C       -1.15654044       9.17229161      16.43611361       10       0.00078976       0.00418561      -0.01061540
C        4.90059406       0.07218409      16.43713863       10       0.00065548       0.00222897       0.02115451
C        6.11259245       0.77333787      16.43510512       10      -0.00056784      -0.00133218       0.01386555
C        3.69107918       2.17177178      16.42482382       10       0.00047214       0.00064411       0.00004761
C        4.90149347       2.87311552      16.41765697       10       0.00108541       0.00180546       0.02534528
C        2.48039267       4.27161376      16.40377347       10       0.00098378       0.00117054       0.01067266
C        3.69323689       4.97304694      16.40098561       10      -0.00044873       0.00087819      -0.00832444
C        1.26775916       6.37351885      16.40377337       10      -0.00160079       0.00103300       0.04386263
C        2.48144909       7.07229484      16.40098550       10      -0.00156545       0.00059053      -0.01933508
C        0.05538270       8.47205253      16.42482395       10      -0.00090444       0.00183646       0.03683332
C        1.26712632       9.16908455      16.41765682       10       0.00069173      -0.00148653       0.00319241
C        7.31844566       0.06735726      16.42671689       10      -0.00222285      -0.00140797       0.00516197
C        8.53401716       0.76988633      16.40998477       10      -0.00059336      -0.00133378       0.05407878
C        6.10702175       2.16822791      16.42671710       10       0.00054538      -0.00142006      -0.00447321
C        7.32378214       2.87106763      16.40998496       10       0.00093861      -0.00165436       0.05120531
C        4.90368296       4.27188268      16.40377347       10       0.00046935       0.00277149      -0.00324600
C        6.11727960       4.97310313      16.39552703       10       0.00065934       0.00199672      -0.00207551
C        3.69212025       6.37356346      16.39790761       10      -0.00286534      -0.00073193       0.00158940
C        4.90481209       7.07302216      16.40098550       10      -0.00219255      -0.00225342       0.00040633
C        2.47935693       8.47231367      16.40377320       10       0.00195934       0.00136489       0.02688787
C        3.69292845       9.17162265      16.39552662       10       0.00235401       0.00062329      -0.00832583
C        9.75376575       0.06921504      16.38385703       10       0.00434807       0.00397579      -0.05733470
C       10.97146293       0.77086260      16.40998477       10      -0.00492511      -0.00141309       0.06311509
C        8.50985814       2.15513736      16.40234622       10       0.00346628       0.00021425       0.34888034
C        9.74995664       2.87080563      16.15798696       10       0.00219234       0.00364894      -1.80377776
C        7.32553242       4.27705469      16.38385708       10       0.00031699      -0.00084234      -0.02523008
C        8.54116242       4.98106674      16.40998240       10      -0.00282334      -0.00024100       0.05245886
C        6.11732009       6.37502300      16.40377337       10       0.00139848       0.00142400      -0.00151359
C        7.32760208       7.07590157      16.41765707       10       0.00087938       0.00107105       0.00398295
C        4.90650929       8.47296218      16.40377320       10       0.00253160       0.00158509      -0.00233468
C        6.11816163       9.16972557      16.41765682       10      -0.00692185      -0.00082823       0.04109983
O        9.77140366       2.98766394      14.63076842       11      -0.00686742      -0.00019648      -0.00568188
H        9.54828666       2.14759442      14.17951268       12       0.00269073       0.00637237       0.00422776
