132
Lattice="12.12 0.0 0.0 -6.06 10.496227893867395 0.0 0.0 0.0 40.0" Properties=species:S:1:pos:R:3:tags:I:1:forces:R:3 energy=-1208.6070848016739 stress="0.0028025662579744303 1.54425887070635e-06 -1.1211996660075007e-06 1.54425887070635e-06 0.0028038821786200434 3.748356234338552e-07 -1.1211996660075007e-06 3.748356234338552e-07 0.0019961538894712493" pbc="T T F"
C        0.00064720       0.00085801      10.00354070        2       0.00050645       0.00034444      -0.00205377
Ti       0.00237016       1.74916234       8.69284084        0      -0.00038507       0.00012341       0.00022710
Ti       1.51589541       0.87540862      11.31285710        0      -0.00047375      -0.00054152       0.00107166
O       -0.00053298       1.75025942      12.23159545        3       0.00087480      -0.00063697       0.16126307
O        1.51539774       0.87547701       7.77115551        1      -0.00116276       0.00049116       0.00061621
C       -1.51448025       2.62482670      10.00540827        2      -0.00029786      -0.00013977      -0.00494440
Ti      -1.51492381       4.37514578       8.69205335        0      -0.00021801      -0.00029279       0.00139862
Ti      -0.00305834       3.50032110      11.31985812        0      -0.00084552       0.00034793       0.00213567
O       -1.51625142       4.37523984      12.23159545        3       0.00012547      -0.00147580       0.09398550
O       -0.00029849       3.49865701       7.77454095        1      -0.00045249       0.00041362      -0.00424979
C       -3.02985774       5.25034290      10.00099444        2       0.00053333      -0.00051891      -0.00320618
Ti      -3.02979077       6.99917169       8.68993929        0      -0.00056485      -0.00196484       0.00154727
Ti      -1.51515906       6.12449790      11.31249063        0      -0.00142784      -0.00114626       0.00007679
O       -3.03043817       6.99842886      12.23159545        3       0.00007175      -0.00005828       0.10862690
O       -1.51460903       6.12332444       7.77098687        1      -0.00026994      -0.00083243      -0.00066517
C       -4.54462037       7.87282216      10.00200430        2      -0.00013431      -0.00081817       0.00014856
Ti      -4.54494329       9.62225803       8.69218452        0      -0.00194501       0.00088036       0.00123247
Ti      -3.03011938       8.74771602      11.31379463        0       0.00102665      -0.00075064       0.00176890
O       -4.54505705       9.62221468      12.23159545        3      -0.00004633      -0.00018936       0.15702072
O       -3.02981906       8.74847332       7.77061159        1      -0.00047119      -0.00065810      -0.00106504
C        3.03075772       0.00089215      10.00282186        2      -0.00026948       0.00033399      -0.00074865
Ti       3.03044564       1.75039066       8.69182433        0      -0.00136447       0.00075612       0.00073473
Ti       4.54568041       0.87639586      11.31402306        0       0.00156028      -0.00105029       0.00103298
O        3.03056934       1.75093215      12.23159545        3       0.00021930      -0.00005636       0.12845099
O        4.54496763       0.87533362       7.77062123        1       0.00004441       0.00063717      -0.00055956
C        1.51520650       2.62473421      10.00352811        2      -0.00026236      -0.00068395      -0.00110000
Ti       1.51550539       4.37412619       8.69232058        0      -0.00050962      -0.00025798       0.00406036
Ti       3.03052875       3.50014161      11.31252944        0      -0.00028601       0.00132136       0.00057630
O        1.51429525       4.37406858      12.23159545        3      -0.00101641      -0.00113066       0.10713369
O        3.02994075       3.49952229       7.77103307        1      -0.00021422       0.00045927       0.00036185
C       -0.00004974       5.24912483      10.00307575        2      -0.00108648      -0.00059695      -0.00147044
Ti       0.00051983       6.99818876       8.69188939        0      -0.00008525      -0.00006480       0.00199565
Ti       1.51497877       6.12390204      11.31220498        0       0.00156072      -0.00063787       0.00076852
O        0.00016538       6.99824925      12.23159545        3      -0.00051518       0.00025960       0.12245293
O        1.51522609       6.12327726       7.77139960        1      -0.00004592      -0.00028443      -0.00072969
C       -1.51498698       7.87333656      10.00232552        2       0.00005231      -0.00049901      -0.00039327
Ti      -1.51448593       9.62224897       8.69074235        0       0.00163166       0.00022669      -0.00030544
Ti       0.00047808       8.74731009      11.31294170        0      -0.00035174       0.00117784       0.00037544
O       -1.51449707       9.62260130      12.23159545        3       0.00025097      -0.00012787       0.10879471
O        0.00076220       8.74778168       7.77125357        1       0.00008649      -0.00033179      -0.00031110
C        6.06026372       0.00108214      10.00254786        2      -0.00078344      -0.00033535      -0.00064930
Ti       6.06000777       1.74997774       8.68986980        0      -0.00056403       0.00113848       0.00176005
Ti       7.57421781       0.87494849      11.31246442        0       0.00208801       0.00213127      -0.00036943
O        6.06071007       1.75110598      12.23159545        3      -0.00014855      -0.00007161       0.11724948
O        7.57616740       0.87568222       7.77122583        1      -0.00002437       0.00066875      -0.00053662
C        4.54572784       2.62479654      10.00169121        2       0.00043762       0.00034181       0.00070328
Ti       4.54541148       4.37384101       8.69064375        0       0.00016911       0.00029369       0.00203217
Ti       6.06198615       3.50044510      11.31029119        0       0.00076831      -0.00028846       0.00008938
O        4.54687671       4.37389132      12.23159545        3       0.00066345      -0.00094105       0.10936975
O        6.06065286       3.49935941       7.77002485        1       0.00068276      -0.00010136       0.00022536
C        3.03031880       5.24850435      10.00271014        2       0.00021625       0.00043291      -0.00043391
Ti       3.03023948       6.99845334       8.69014711        0       0.00043400      -0.00008035       0.00054547
Ti       4.54549035       6.12335257      11.31319197        0      -0.00155647       0.00034157       0.00100760
O        3.03053455       6.99822325      12.23159545        3      -0.00051592       0.00064427       0.10889538
O        4.54535841       6.12365141       7.77126088        1       0.00005601      -0.00001780      -0.00234509
C        1.51539339       7.87307409      10.00239582        2       0.00010408      -0.00006076       0.00072772
Ti       1.51565795       9.62242044       8.69214798        0      -0.00040673      -0.00101290       0.00203125
Ti       3.03005531       8.74762150      11.31204361        0       0.00057751       0.00016430       0.00064214
O        1.51507888       9.62227242      12.23159545        3      -0.00045479       0.00000439       0.11145369
O        3.03073934       8.74821297       7.77175786        1       0.00005978       0.00046981      -0.00167202
C        9.09031260       0.00114571      10.00355645        2       0.00017421       0.00088354      -0.00296950
Ti       9.09002498       1.75066866       8.69132175        0       0.00009134       0.00009317       0.00209156
Ti      10.60272022       0.87715587      11.32068471        0      -0.00217232       0.00174690       0.00213645
O        9.08816143       1.75092044      12.23159545        3       0.00060268      -0.00046222       0.07236058
O       10.60599905       0.87634440       7.77478597        1      -0.00097440       0.00041910      -0.00534274
C        7.57482815       2.62472286      10.00058194        2       0.00087351      -0.00020486      -0.00311163
Ti       7.57567230       4.37418418       8.69026411        0       0.00091059      -0.00014463       0.00356269
Ti       9.09194682       3.49885356      11.30304442        0       0.00087732      -0.00159208       0.00202867
O        7.57884269       4.37182966      12.23159545        3       0.00078317      -0.00018515       0.15201606
O        9.09151998       3.49918084       7.77155715        1      -0.00006895      -0.00078931      -0.00827228
C        6.06118297       5.24850144      10.00176534        2       0.00046780      -0.00010087       0.00011629
Ti       6.06051478       6.99873438       8.69069964        0       0.00046633      -0.00014435       0.00159891
Ti       7.57561981       6.12117647      11.31256527        0       0.00138842      -0.00121463       0.00023822
O        6.06094188       6.99721205      12.23159545        3       0.00087092       0.00063104       0.11610804
O        7.57550850       6.12378407       7.77023398        1       0.00047239      -0.00082804       0.00018426
C        4.54569599       7.87300529      10.00280717        2      -0.00003094      -0.00037778      -0.00050845
Ti       4.54559520       9.62236232       8.69307138        0       0.00074940       0.00034900       0.00299948
Ti       6.06015443       8.74715653      11.31258563        0      -0.00082186       0.00086641       0.00041724
O        4.54523326       9.62355204      12.23159545        3       0.00060710       0.00082037       0.14165774
O        6.06002030       8.74824352       7.77116015        1       0.00009857       0.00011307       0.00054512
C        0.06941021       0.05273411      17.84776952       10      -0.00010625       0.00076956      -0.02909435
C        1.27644300       0.75563732      17.85615775       10      -0.00198120       0.00129232      -0.02143747
C       -1.12074335       2.13962825      17.82339885       10       0.00136753      -0.00135941       0.52288724
C        0.06596459       2.85262622      17.83103759       10       0.00092968       0.00052926      -0.04028854
C       -2.36289454       4.28895990      17.82339330       10      -0.00022181       0.00404931       0.35612812
C       -1.15287210       4.96169745      17.83103503       10       0.00112357       0.00060576      -0.01887769
C       -3.57575749       6.36754788      17.84776897       10      -0.00172039      -0.00079328      -0.02780820
C       -2.36313555       7.05988839      17.85615755       10      -0.00202025      -0.00429426      -0.01663942
C       -4.78657816       8.45604173      17.84587658       10      -0.00100509      -0.00019609      -0.03202043
C       -3.57491624       9.15526439      17.85716624       10      -0.00171931      -0.00183541      -0.03479675
C        2.48743224       0.05641446      17.85819126       10      -0.00173168       0.00067658      -0.02536155
C        3.69653295       0.75729171      17.85716615       10      -0.00104062       0.00167126      -0.03693213
C        1.28151404       2.15252464      17.84776973       10      -0.00040364       0.00051639      -0.03294822
C        2.48671854       2.85685117      17.83870960       10      -0.00176079      -0.00096245      -0.03918303
C        0.06336423       4.25783590      17.80490971       10       0.00147810       0.00060981      -0.06067228
C        1.27075284       4.95546055      17.81657966       10       0.00068001       0.00018766      -0.03364382
C       -1.15171430       6.36565683      17.84776897       10      -0.00107833      -0.00065421      -0.01304264
C        0.06115688       7.05757758      17.83870970       10      -0.00104519      -0.00155734      -0.02278491
C       -2.36332445       8.45850562      17.85819147       10       0.00035680      -0.00356766      -0.02813700
C       -1.15216311       9.15524200      17.85716624       10       0.00318647      -0.00164641      -0.03374257
C        4.90562455       0.05620184      17.85819126       10       0.00138416       0.00184091      -0.02337550
C        6.11691523       0.75552592      17.85615775       10       0.00286098       0.00196405      -0.01656779
C        3.69608393       2.15633290      17.84587645       10      -0.00132191       0.00099503      -0.02900253
C        4.90553189       2.85747287      17.83870960       10       0.00185872      -0.00281749      -0.02187694
C        2.48434445       4.25561324      17.82482610       10      -0.00144232      -0.00248272      -0.02901564
C        3.69645935       4.95665347      17.82203824       10      -0.00016759      -0.00324281      -0.03274996
C        1.27113900       6.35674126      17.82482600       10      -0.00170106      -0.00011196      -0.03678482
C        2.48467190       7.05573123      17.82203813       10      -0.00260222       0.00163907      -0.03075223
C        0.05928495       8.45568967      17.84587658       10       0.00475983      -0.00116242      -0.02529703
C        1.27113873       9.15338181      17.83870945       10       0.00306977       0.00184273      -0.02450604
C        7.32392393       0.05343097      17.84776952       10       0.00059952       0.00117986      -0.01518018
C        8.53928428       0.75626197      17.83103740       10      -0.00162886       0.00029283      -0.02435809
C        6.10991710       2.15185462      17.84776973       10       0.00338505       0.00081563      -0.02543920
C        7.32648164       2.85164557      17.83103759       10       0.00227637       0.00059001      -0.00955406
C        4.90780174       4.25530401      17.82482610       10       0.00251885      -0.00288835      -0.01429691
C        6.12103904       4.95603085      17.81657966       10       0.00278188      -0.00099584      -0.04629289
C        3.69652577       6.35618183      17.81896024       10      -0.00180834      -0.00044227      -0.03762343
C        4.90862383       7.05581014      17.82203813       10       0.00044269       0.00045262      -0.04101313
C        2.48327778       8.45601499      17.82482583       10      -0.00027068       0.00146027      -0.04582510
C        3.69679721       9.15693447      17.81657925       10      -0.00233683       0.00039091      -0.03766068
C        9.75724422       0.05502490      17.80490966       10      -0.00337047      -0.00001012      -0.05432057
C       10.97533154       0.75530865      17.83103740       10      -0.00329862      -0.00224573      -0.04859028
C        8.51640835       2.14048955      17.82339885       10      -0.00015579       0.00017231       0.36516447
C        9.75596588       2.85718722      17.57903959       10      -0.00066710       0.00229922      -1.76060002
C        7.32875603       4.25866569      17.80490971       10       0.00224716      -0.00020979      -0.06081468
C        8.54620390       4.96387341      17.83103503       10      -0.00156821       0.00220873      -0.00280594
C        6.12159505       6.35723719      17.82482600       10       0.00269125       0.00001830      -0.01663468
C        7.33098411       7.05801983      17.83870970       10       0.00070440       0.00075527      -0.02515117
C        4.90978144       8.45594929      17.82482583       10      -0.00147870       0.00215721      -0.03715070
C        6.12214221       9.15324118      17.83870945       10      -0.00238390       0.00064967      -0.03964914
O        9.82772579       2.81199728      16.02220573       11       0.00139952       0.00473458       0.00391242
H        9.05006204       3.26754823      15.64872181       12      -0.00107555       0.00048147      -0.00243009
