131
Lattice="12.12 0.0 0.0 -6.06 10.496227893867395 0.0 0.0 0.0 40.0" Properties=species:S:1:pos:R:3:tags:I:1:forces:R:3 energy=-1204.851742455884 stress="0.002834349059123054 4.937720889267122e-07 -1.8811604441412023e-06 4.937720889267122e-07 0.002830999161159481 -5.245549702099081e-06 -1.8811604441412023e-06 -5.245549702099081e-06 0.0028963074686572375" pbc="T T F"
C        0.23619016      -0.07604635       9.95214667        2      -0.00030218      -0.00088279      -0.00191983
Ti       0.25808754       1.65823350       8.67278413        0       0.00070749      -0.00067210       0.00365783
Ti       1.77476873       0.81730492      11.27005923        0       0.00120093      -0.00188868      -0.00277633
O        0.23737349       1.67154586      12.23159545        3       0.00024027      -0.00198774      -0.19239696
O        1.78685436       0.77063549       7.78078802        1      -0.00063252      -0.00051875      -0.00218312
C       -1.25642521       2.53198615       9.95196780        2      -0.00142433      -0.00124854      -0.00066326
Ti      -1.25739684       4.28163854       8.67255379        0      -0.00067123       0.00015247       0.00129253
Ti       0.25590967       3.40476027      11.29781618        0      -0.00220903       0.00068343      -0.00187896
O       -1.25559114       4.25493669      12.23159545        3       0.00118129      -0.00182238      -0.19330142
O        0.26257165       3.40957160       7.75473699        1       0.00069136       0.00091410       0.00108585
C       -2.76983647       5.12685663       9.94948130        2      -0.00025290       0.00185002      -0.00230603
Ti      -2.76981900       6.89420844       8.73819935        0       0.00007601      -0.00183812       0.00261686
Ti      -1.22556417       6.01273321      11.27091129        0      -0.00064456       0.00082258       0.00023167
O       -2.76948662       6.70405126      12.23159545        3      -0.00047199      -0.00117172      -0.30515459
O       -1.26112412       6.04945232       7.78125634        1      -0.00002388       0.00048662      -0.00245109
C       -4.27554006       7.78566902      10.03691198        2       0.00047553       0.00011024      -0.00203195
Ti      -4.29473849       9.53805000       8.73643990        0      -0.00423321       0.00221755       0.00385276
Ti      -2.77278573       8.64779985      11.88579178        0       0.00203184      -0.00223160      -0.00117808
O       -4.44791337       9.62706819      12.23159545        3      -0.00417159       0.00091237      -0.28008058
O       -2.76965247       8.65620060       7.86230817        1       0.00016303      -0.00084059       0.00262315
C        3.28989236      -0.09743804      10.03271355        2      -0.00124345      -0.00167260      -0.00294246
Ti       3.29020718       1.65644825       8.70748575        0       0.00041163      -0.00103476       0.00087245
Ti       4.80482023       0.81591664      11.27057785        0      -0.00135227      -0.00042667      -0.00212094
O        3.29018223       1.67626604      12.23159545        3      -0.00139088       0.00096201      -0.12045397
O        4.79411165       0.77093319       7.78101733        1      -0.00088807      -0.00064736      -0.00071265
C        1.76930834       2.54437504       9.96795538        2      -0.00005193      -0.00023906      -0.00039344
Ti       1.77533193       4.28454333       8.67771123        0      -0.00021845      -0.00411448       0.00066472
Ti       3.29011496       3.41248395      11.29842724        0       0.00373973      -0.00191748      -0.00123199
O        1.77279484       4.28203152      12.23159545        3      -0.00119496      -0.00068825      -0.15606978
O        3.29006935       3.39309698       7.76768715        1       0.00104545      -0.00362303       0.00082937
C        0.26609485       5.14743918       9.96796264        2       0.00050512      -0.00249531      -0.00038305
Ti       0.25631878       6.90936686       8.70829365        0       0.00054258      -0.00132958      -0.00086973
Ti       1.77856085       6.03150980      11.29662993        0      -0.00196322       0.00152352      -0.00115285
O        0.27516429       6.89824885      12.23159545        3      -0.00093701      -0.00097049      -0.11995503
O        1.76033469       6.04193032       7.76764409        1       0.00063075      -0.00106537       0.00097736
C       -1.26382030       7.78508291      10.03593529        2       0.00052178      -0.00125046      -0.00396676
Ti      -1.24422519       9.53847344       8.73576707        0       0.00019036      -0.00021292       0.00207336
Ti       0.28632541       8.64110365      11.27248174        0      -0.00086124      -0.00283993      -0.00131607
O       -1.09689877       9.62366794      12.23159545        3      -0.00007226      -0.00137487      -0.26806001
O        0.24231199       8.65402681       7.78220351        1      -0.00162993      -0.00124517      -0.00255779
C        6.34380529      -0.07626091       9.95340122        2      -0.00283479      -0.00256032      -0.00387878
Ti       6.32285198       1.65843873       8.67386768        0      -0.00166502      -0.00079749       0.00184006
Ti       7.83553225       0.78529818      11.29969528        0       0.00066619      -0.00071777      -0.00206703
O        6.34245844       1.67071347      12.23159545        3       0.00017693       0.00084592      -0.19174001
O        7.83274411       0.78270678       7.75275569        1      -0.00226997      -0.00148704       0.00056381
C        4.81083795       2.54424348       9.96862206        2      -0.00071817      -0.00085457      -0.00324721
Ti       4.80456373       4.28406663       8.67824547        0       0.00119803      -0.00143871      -0.00002632
Ti       6.32435057       3.40461622      11.29848642        0      -0.00259222      -0.00163142       0.00041302
O        4.80780671       4.28194379      12.23159545        3      -0.00071114      -0.00009244      -0.15800662
O        6.31777338       3.40967152       7.75570753        1      -0.00096265      -0.00036173      -0.00062789
C        3.28985707       5.15861412       9.96073360        2       0.00106896      -0.00099125       0.00313462
Ti       3.28944106       6.90689777       8.67919108        0       0.00334513       0.00058759       0.00070171
Ti       4.80209695       6.03178949      11.29572244        0       0.00070046      -0.00316818      -0.00017792
O        3.29021193       6.91080493      12.23159545        3      -0.00053732       0.00112110      -0.15466496
O        4.81910466       6.04159374       7.76789979        1       0.00311547      -0.00019563       0.00142298
C        1.78592855       7.78240074       9.96890019        2       0.00143210      -0.00030678      -0.00067324
Ti       1.77527245       9.53350359       8.67498402        0      -0.00107283      -0.00001106       0.00163341
Ti       3.28996520       8.66261571      11.30037431        0      -0.00323139       0.00047421      -0.00140784
O        1.79642203       9.54518815      12.23159545        3       0.00192899      -0.00213058      -0.18923788
O        3.29020735       8.65470514       7.75648301        1      -0.00082923      -0.00225727       0.00092544
C        9.35017033      -0.08785990       9.95268499        2      -0.00022545       0.00020012       0.00049021
Ti       9.35045717       1.65826035       8.69113806        0      -0.00203140      -0.00022436       0.00415037
Ti      10.86498800       0.78546783      11.29883047        0      -0.00420642       0.00232900      -0.00277327
O        9.35016113       1.65864158      12.23159545        3       0.00081294      -0.00126196      -0.19897521
O       10.86782430       0.78264427       7.75232927        1       0.00058188      -0.00128963      -0.00166485
C        7.83705736       2.53183949       9.95218248        2      -0.00007404      -0.00097970      -0.00060136
Ti       7.83813611       4.28168888       8.67300419        0      -0.00086209       0.00049833       0.00136621
Ti       9.35037926       3.40589445      11.29859952        0       0.00156048      -0.00352065      -0.00260977
O        7.83595643       4.25459009      12.23159545        3      -0.00085294      -0.00134099      -0.19098856
O        9.35019257       3.41010517       7.75124950        1      -0.00046296       0.00111400      -0.00009648
C        6.31415840       5.14745632       9.96852911        2      -0.00011157       0.00003374      -0.00210473
Ti       6.32318871       6.90888470       8.70781520        0      -0.00010790      -0.00104438       0.00177514
Ti       7.80597720       6.01266542      11.27180571        0       0.00202501       0.00257508      -0.00171714
O        6.30523273       6.89830238      12.23159545        3      -0.00203707      -0.00154184      -0.11892322
O        7.84122945       6.04956567       7.78155849        1      -0.00091000      -0.00044760      -0.00132176
C        4.79416031       7.78243106       9.96894953        2      -0.00037964      -0.00080203      -0.00070042
Ti       4.80564407       9.53355835       8.67438171        0       0.00050585      -0.00178437       0.00353042
Ti       6.29259361       8.64118247      11.27283328        0       0.00212507      -0.00150433      -0.00362749
O        4.78261394       9.54536521      12.23159545        3       0.00142547      -0.00044734      -0.18827321
O        6.33849682       8.65346223       7.78232490        1      -0.00049524      -0.00051189      -0.00292820
C       -0.36311627       0.20940045      15.68553629       10       0.00626638       0.00263170       0.04344700
C        0.84389681       0.91145392      15.67024424       10      -0.00114450       0.00099858       0.00467914
C       -1.57652939       2.30988470      15.69085699       10       0.00104343      -0.00040168       0.04448618
C       -0.36476287       3.00938323      15.67314656       10      -0.00124721       0.00168752       0.03271602
C       -2.78874638       4.41109615      15.68553629       10       0.00188917       0.00015661       0.04320020
C       -1.57727785       5.10532867      15.67024424       10      -0.00038779       0.00101834       0.00606612
C       -3.99538786       6.51205825      15.62242554       10       0.00157939      -0.00011170       0.14998633
C       -2.78862931       7.19011002      15.58060332       10      -0.00036377      -0.00008240      -0.29085371
C       -5.20690503       8.61034099      15.62242554       10       0.00314395       0.00107761       0.15388134
C       -4.01693257       9.31676546      15.58060332       10      -0.00717313      -0.00078139      -0.25606207
C        2.05949444       0.20436656      15.62242554       10       0.00141450       0.00425884       0.15643430
C        3.27121430       0.91238807      15.59034686       10       0.00362417       0.00053638       0.02896631
C        0.84728924       2.31007383      15.65920127       10      -0.00014619       0.00265651       0.06784898
C        2.05866760       3.00892393      15.63728686       10       0.00087955       0.00065227       0.10668966
C       -0.36431179       4.40871409      15.65920127       10       0.00015088       0.00150122       0.06858917
C        0.84657224       5.10824757      15.63728686       10       0.00078327       0.00080700       0.10263134
C       -1.58195391       6.51185289      15.62242554       10       0.00183860       0.00197408       0.15076782
C       -0.36283077       7.20684322      15.59034686       10       0.00199395       0.00155300       0.02566509
C       -2.78771569       8.60909680      15.12779766       10      -0.00223834       0.00113299       1.13321586
C       -1.55919997       9.31727387      15.58060332       10       0.00025671       0.00039802      -0.23245370
C        4.48332320       0.20464565      15.62242554       10       0.00235999       0.00212334       0.15964328
C        5.69885008       0.91172885      15.67024424       10       0.00187726       0.00148003       0.00135682
C        3.27117716       2.30658997      15.62268057       10       0.00084237       0.00049972       0.03124158
C        4.48367816       3.00896531      15.63728686       10       0.00008888       0.00165793       0.10640563
C        2.05972919       4.40905316      15.63460525       10       0.00103952       0.00092384       0.05024797
C        3.27111533       5.10839499      15.62960448       10       0.00089452       0.00213043       0.10395907
C        0.84445244       6.50950653      15.62268057       10       0.00196482       0.00123244       0.02828594
C        2.05912420       7.20819286      15.63728686       10       0.00209037       0.00101857       0.10042956
C       -0.36982182       8.61047545      15.62242554       10      -0.00031099       0.00171045       0.15787057
C        0.85054067       9.30952471      15.67024424       10       0.00002403       0.00010930      -0.00223485
C        6.90579486       0.20959293      15.68553629       10       0.00033034       0.00139735       0.04386479
C        8.12124801       0.91143289      15.69247481       10       0.00063919      -0.00026130      -0.00502773
C        5.69526868       2.31033414      15.65920127       10      -0.00009322       0.00167648       0.06668455
C        6.90740518       3.00962758      15.67314656       10       0.00011996      -0.00014045       0.02870151
C        4.48247695       4.40907008      15.63460525       10       0.00075337       0.00203737       0.04887560
C        5.69566681       5.10833370      15.63728686       10       0.00150677       0.00063448       0.10013024
C        3.27110386       6.50707770      15.63460525       10       0.00191429       0.00176241       0.04600603
C        4.48319558       7.20823535      15.63728686       10       0.00146568       0.00064037       0.09815002
C        2.05986832       8.60679137      15.65920127       10      -0.00118011       0.00074676       0.06496187
C        3.27150305       9.30713468      15.67314656       10      -0.00120112      -0.00044137       0.02319047
C        9.33132573       0.21024017      15.69085699       10       0.00387729       0.00399237       0.04075842
C       10.54153655       0.91128550      15.69247481       10      -0.00331193       0.00115672      -0.00587358
C        8.11924668       2.31001245      15.69085699       10       0.00041170       0.00070933       0.04335852
C        9.33140120       3.00748296      15.69247481       10      -0.00165152       0.00210669      -0.00772927
C        6.90670803       4.40898440      15.65920127       10       0.00196503       0.00056791       0.06746183
C        8.11985400       5.10538888      15.67024424       10      -0.00093899       0.00227128       0.00418392
C        5.69787208       6.50959029      15.62268057       10       0.00196496       0.00057820       0.02621523
C        6.90536968       7.20681878      15.59034686       10      -0.00027191       0.00210835       0.02400676
C        4.48310617       8.60675858      15.65920127       10      -0.00015462       0.00183571       0.06503077
C        5.69266808       9.30940579      15.67024424       10      -0.00612986      -0.00163449      -0.00079754
O       -2.78035426       8.62598148      13.72201409       11      -0.00305064       0.00124639       0.00158543
