131
Lattice="12.12 0.0 0.0 -6.06 10.496227893867395 0.0 0.0 0.0 40.0" Properties=species:S:1:pos:R:3:tags:I:1:forces:R:3 energy=-1205.0867402376512 stress="0.0028111733444911736 -8.151711470059173e-06 8.57082880645508e-06 -8.151711470059173e-06 0.0028014839595233 1.4597433154100875e-06 8.57082880645508e-06 1.4597433154100875e-06 0.0026715903374255976" pbc="T T F"
C        0.00251881      -0.00021019      10.00146884        2       0.00148640      -0.00029911      -0.00029821
Ti       0.00393713       1.74976083       8.70098085        0       0.00169883      -0.00035026       0.00539022
Ti       1.52582384       0.88223158      11.31117863        0       0.00051338       0.00220521      -0.00452882
O        0.00197476       1.74833041      12.23159545        3       0.00167435      -0.00253563      -0.04735959
O        1.51985867       0.86891474       7.78567104        1      -0.00140389      -0.00117621      -0.00349410
C       -1.51304528       2.62284187       9.99463531        2       0.00041508      -0.00059149      -0.00127559
Ti      -1.51394580       4.37740046       8.69929717        0       0.00210296       0.00167233       0.00566325
Ti      -0.00117989       3.49788396      11.32524893        0       0.00113596       0.00092530      -0.00244424
O       -1.51494427       4.36726648      12.23159545        3       0.00119007       0.00170702      -0.00277066
O        0.00096376       3.49837128       7.77658232        1       0.00014265      -0.00064921      -0.00278778
C       -3.03172930       5.23810505       9.99203864        2       0.00107280       0.00124542      -0.00145421
Ti      -3.03314673       6.99081617       8.72750748        0       0.00287007       0.00012655       0.00038508
Ti      -1.50700730       6.12511185      11.31730816        0      -0.00149221       0.00602583      -0.00225656
O       -3.04229702       6.93965381      12.23159545        3       0.00027937      -0.00325390      -0.22197768
O       -1.51716778       6.13126492       7.78821448        1       0.00084533      -0.00192555      -0.00277403
C       -4.54415734       7.86739798      10.01887694        2      -0.00058007       0.00071823      -0.00322063
Ti      -4.54682318       9.62357059       8.72253756        0       0.00314661      -0.00090255       0.00036184
Ti      -2.99161050       8.73245179      11.48811605        0       0.00830210      -0.00096514       0.00365084
O       -4.55234230       9.62871850      12.23159545        3      -0.00437975       0.00299096       0.04974405
O       -3.02654015       8.74645982       7.82379788        1       0.00107253       0.00050891      -0.00281098
C        3.03629391       0.00457476      10.01896964        2      -0.00041584       0.00101680      -0.00391115
Ti       3.03090206       1.74635245       8.71157171        0       0.00178983      -0.00180210       0.00231101
Ti       4.54810136       0.90072278      11.29753100        0       0.00063565      -0.00390726      -0.00363771
O        3.02968688       1.76099114      12.23159545        3      -0.00080745      -0.00051638       0.02213202
O        4.54296294       0.87073761       7.78212321        1       0.00237768       0.00057261      -0.00355046
C        1.51450525       2.62990022       9.99566113        2      -0.00049449       0.00045686      -0.00254351
Ti       1.51411054       4.37569479       8.69861902        0       0.00114345       0.00041989       0.00734758
Ti       3.02924261       3.50289089      11.31694392        0       0.00003941      -0.00151501      -0.00273409
O        1.51317367       4.37263132      12.23159545        3      -0.00088074      -0.00117117      -0.01331604
O        3.02819396       3.49432244       7.77575759        1       0.00168217       0.00262589      -0.00084628
C        0.00103414       5.24503757       9.99724442        2       0.00130120      -0.00206214      -0.00349821
Ti      -0.00301213       7.00061385       8.71525334        0       0.00062952       0.00026331       0.00022477
Ti       1.51889811       6.12227287      11.31547778        0       0.00164549      -0.00071108      -0.00346751
O        0.01449605       6.99105680      12.23159545        3       0.00178541      -0.00078672      -0.01763779
O        1.50812975       6.12804955       7.78041568        1       0.00506168      -0.00197741      -0.00318153
C       -1.51512929       7.87467365      10.03601906        2       0.00234087      -0.00072605      -0.00532186
Ti      -1.50870264       9.62965865       8.72879768        0       0.00215630      -0.00093128       0.00029893
Ti       0.00436620       8.74175467      11.31684086        0      -0.00749129       0.00059601      -0.00072503
O       -1.46112002       9.67237925      12.23159545        3       0.00492470       0.00347595      -0.30812125
O       -0.00663860       8.74647956       7.78804475        1       0.00283295       0.00099073      -0.00292528
C        6.07143042       0.00998464       9.98969732        2       0.00097975      -0.00022025      -0.00271187
Ti       6.06317154       1.74875714       8.69249131        0      -0.00035273      -0.00148360       0.00664037
Ti       7.57580294       0.87802039      11.32088371        0      -0.00149335      -0.00145402      -0.00189374
O        6.06770394       1.75495145      12.23159545        3      -0.00039277      -0.00261036      -0.04011199
O        7.57835275       0.87443364       7.77381187        1       0.00083818      -0.00114173      -0.00111245
C        4.54899528       2.63457603       9.99344528        2       0.00272722       0.00124626      -0.00194362
Ti       4.54459225       4.37447483       8.68579208        0       0.00128587       0.00038029       0.00791373
Ti       6.06006413       3.50068748      11.31059395        0       0.00486534      -0.00138083      -0.00256968
O        4.54386777       4.37488375      12.23159545        3       0.00321956      -0.00086505      -0.04386490
O        6.06029468       3.50052111       7.76817830        1       0.00202717      -0.00072124       0.00030132
C        3.03110964       5.24857527       9.99485362        2       0.00216318      -0.00012210      -0.00020078
Ti       3.02864687       6.99847653       8.69875963        0       0.00089753       0.00020390       0.00713713
Ti       4.54308877       6.12326544      11.31678552        0       0.00263186       0.00161540      -0.00285981
O        3.03131485       7.00088593      12.23159545        3       0.00165266       0.00258169      -0.01757490
O        4.54926930       6.12831979       7.77618665        1      -0.00082208      -0.00121517      -0.00101666
C        1.51998990       7.87463653       9.99768861        2       0.00341596       0.00119166      -0.00299399
Ti       1.51393732       9.62109686       8.69851775        0      -0.00028528      -0.00123303       0.00536608
Ti       3.03255036       8.75018783      11.32483196        0       0.00095269       0.00029654      -0.00224624
O        1.52237258       9.62742108      12.23159545        3       0.00028160      -0.00071930      -0.01077663
O        3.03258116       8.74738499       7.77636830        1       0.00096071       0.00154786      -0.00272951
C        9.09401228       0.00054840       9.99445339        2       0.00132157       0.00090929      -0.00078014
Ti       9.09476648       1.74852873       8.70296959        0       0.00072558       0.00047381       0.00527046
Ti      10.60953844       0.87301753      11.32041129        0       0.00344183      -0.00148177      -0.00146029
O        9.09490741       1.74817724      12.23159545        3       0.00213427      -0.00047228      -0.02053129
O       10.61025447       0.87282911       7.77710931        1       0.00226240      -0.00037544      -0.00171021
C        7.57706034       2.62510588       9.99114508        2       0.00228958      -0.00037397      -0.00080042
Ti       7.57779900       4.37330683       8.69327806        0       0.00152718       0.00197398       0.00693605
Ti       9.08851120       3.49869781      11.32092054        0       0.00105730       0.00332967      -0.00141782
O        7.57501472       4.36631895      12.23159545        3       0.00287397       0.00403078      -0.04032784
O        9.09293015       3.49891110       7.77442284        1       0.00212846       0.00122637      -0.00086065
C        6.05446652       5.24172658       9.99446369        2       0.00152191      -0.00152964      -0.00173084
Ti       6.06381374       6.99987402       8.71269951        0       0.00338502       0.00078046       0.00313452
Ti       7.55779069       6.11130340      11.29731372        0       0.00205619       0.00028444      -0.00448957
O        6.05254107       6.99356184      12.23159545        3       0.00162082       0.00146958       0.02724691
O        7.57859922       6.12881195       7.78252743        1       0.00171554      -0.00143210      -0.00340246
C        4.54163217       7.87117411       9.99632513        2      -0.00007639       0.00157175      -0.00228614
Ti       4.54755882       9.61978993       8.70084969        0       0.00195938       0.00006205       0.00495345
Ti       6.06186453       8.73548695      11.31210641        0      -0.00212201       0.00014789      -0.00405730
O        4.54923727       9.62289459      12.23159545        3       0.00424757       0.00055879      -0.03702763
O        6.06853507       8.74711636       7.78604882        1       0.00064122       0.00289543      -0.00361148
C        0.03886399       0.06931562      16.11185208       10      -0.00348434       0.00287586      -0.01570280
C        1.24538173       0.77048155      16.09656003       10      -0.00160214       0.00073316       0.01416698
C       -1.17126757       2.16633042      16.11717278       10      -0.00045406      -0.00096544      -0.00722719
C        0.03978340       2.86579905      16.09946235       10      -0.00201951      -0.00215338       0.02109833
C       -2.38232042       4.26467257      16.11185208       10       0.00004658      -0.00423723       0.03219730
C       -1.17235782       4.95886510      16.09656003       10      -0.00156738       0.00064759       0.02140225
C       -3.58964853       6.36663460      16.04874133       10      -0.00183393      -0.00061469       0.08489909
C       -2.38295609       7.04686400      16.00691911       10      -0.00449832       0.00406444      -0.33491050
C       -4.80503245       8.47083111      16.04874133       10      -0.00218446       0.00081387       0.09234786
C       -3.61539387       9.17610445      16.00691911       10      -0.00049550      -0.00003809      -0.21787753
C        2.46081241       0.06270242      16.04874133       10      -0.00285564      -0.00007122       0.08852135
C        3.67631770       0.76828556      16.01666265       10      -0.00565259       0.00199988      -0.02785383
C        1.25104178       2.16782332      16.08551706       10      -0.00215928      -0.00106815      -0.00161628
C        2.46348580       2.86549869      16.06360265       10      -0.00321867      -0.00032104       0.01984166
C        0.04111150       4.26554538      16.08551706       10      -0.00067496      -0.00117172       0.04082614
C        1.25167919       4.96473043      16.06360265       10      -0.00040085      -0.00087488       0.01490600
C       -1.17689985       6.36691218      16.04874133       10      -0.00588594       0.00316856       0.12023886
C        0.04276558       7.06420669      16.01666265       10      -0.00414479      -0.00217663      -0.03313961
C       -2.39020999       8.46638070      15.55411345       10      -0.00140633       0.00151358       0.62034994
C       -1.15714307       9.17265730      16.00691911       10      -0.00254461      -0.00091192      -0.37896839
C        4.88998441       0.06159395      16.04874133       10      -0.00658545       0.00083155       0.07823815
C        6.10686996       0.76901974      16.09656003       10      -0.00388939      -0.00171108       0.03184185
C        3.67615103       2.16337404      16.04899636       10      -0.00307238       0.00129613      -0.00969758
C        4.89017364       2.86570888      16.06360265       10       0.00143975      -0.00197792       0.02903606
C        2.46494794       4.26633513      16.06092104       10      -0.00114516      -0.00109729       0.00449181
C        3.67695956       4.96631517      16.05592027       10      -0.00104138      -0.00147878       0.00047064
C        1.25064352       6.36698991      16.04899636       10      -0.00245090       0.00075919       0.01400157
C        2.46529303       7.06725130      16.06360265       10      -0.00108074       0.00047360       0.01355096
C        0.03557656       8.46889506      16.04874133       10      -0.00241725      -0.00172574       0.10736018
C        1.25757708       9.16928515      16.09656003       10      -0.00048887      -0.00028044       0.01563738
C        7.31424941       0.06797282      16.11185208       10      -0.00148251       0.00171908       0.03918151
C        8.52760335       0.76892523      16.11879060       10      -0.00097658       0.00181230       0.02265526
C        6.10158586       2.16679618      16.08551706       10       0.00194544      -0.00213361       0.01735447
C        7.31393818       2.86598177      16.09946235       10       0.00118927      -0.00249551       0.01953046
C        4.88838982       4.26650438      16.06092104       10      -0.00066173       0.00002114      -0.00380143
C        6.10268281       4.96537433      16.06360265       10      -0.00317826       0.00227740       0.03131746
C        3.67694310       6.36586844      16.06092104       10      -0.00256420      -0.00135530       0.00308005
C        4.88941254       7.06751431      16.06360265       10      -0.00320392      -0.00168520       0.02246552
C        2.46510346       8.46536792      16.08551706       10      -0.00048064      -0.00009494       0.04745050
C        3.67698144       9.16646655      16.09946235       10      -0.00039560      -0.00127185       0.01868996
C        9.73724332       0.06859485      16.11717278       10      -0.00274276      -0.00004365      -0.00025040
C       10.94614067       0.76938346      16.11879060       10      -0.00321031       0.00212798       0.02002981
C        8.52638983       2.16597619      16.11717278       10       0.00162953       0.00087459       0.00869151
C        9.73705694       2.86365805      16.11879060       10       0.00012938      -0.00186412       0.02632483
C        7.31360634       4.26532502      16.08551706       10      -0.00445669      -0.00082514       0.01727346
C        8.52670754       4.95967883      16.09656003       10      -0.00242194      -0.00186797       0.03525767
C        6.10365261       6.36786438      16.04899636       10      -0.00292273       0.00185933      -0.00757132
C        7.31211569       7.06528885      16.01666265       10      -0.00359739       0.00081872      -0.02109239
C        4.88727356       8.46647074      16.08551706       10      -0.00144877      -0.00225640       0.01092426
C        6.09476740       9.16995131      16.09656003       10      -0.00260180       0.00268585       0.01469273
O       -2.42263890       8.46388815      14.22488082       11      -0.00139278      -0.00433863       0.00092748
