131
Lattice="12.12 0.0 0.0 -6.06 10.496227893867395 0.0 0.0 0.0 40.0" Properties=species:S:1:pos:R:3:tags:I:1:forces:R:3 energy=-1205.0777361918697 stress="0.0029019189924515674 -2.241783040354118e-07 2.0702618011922745e-06 -2.241783040354118e-07 0.0029018703019696225 -7.049293707974787e-07 2.0702618011922745e-06 -7.049293707974787e-07 0.0022134492278693967" pbc="T T F"
C       -0.00021533       0.00021958      10.00504929        2       0.00060618      -0.00028857      -0.00104235
Ti       0.00053382       1.74902625       8.71324891        0       0.00054379       0.00013182       0.00047787
Ti       1.51602037       0.87591225      11.29565453        0       0.00031409      -0.00101289       0.00060825
O       -0.00139717       1.74985553      12.23008024        3       0.00073092      -0.00009531       0.10432746
O        1.51637124       0.87218987       7.77781513        1      -0.00026920       0.00119162      -0.00081983
C       -1.51486706       2.62383897      10.00299723        2       0.00042264       0.00011552       0.00006384
Ti      -1.51500431       4.37417677       8.71459666        0       0.00039472       0.00007952       0.00054557
Ti       0.00064016       3.49884336      11.29309626        0       0.00045247       0.00016824      -0.00064563
O       -1.51468950       4.36853085      12.23008024        3       0.00043594       0.00017575       0.13148315
O       -0.00051314       3.49880534       7.77403777        1       0.00050682      -0.00012469       0.00066221
C       -3.02982118       5.24709382      10.00697841        2       0.00025953       0.00036919      -0.00131697
Ti      -3.03006613       6.99839658       8.72467843        0       0.00031587      -0.00018552      -0.00413541
Ti      -1.51370744       6.12315334      11.30460475        0      -0.00057973       0.00081116       0.00124238
O       -3.03207646       6.98869412      12.23008024        3      -0.00000965      -0.00000435       0.09265037
O       -1.51626234       6.12534444       7.78028326        1       0.00101990      -0.00130280      -0.00143328
C       -4.54459918       7.87213088      10.01375415        2       0.00096317       0.00025888      -0.00309367
Ti      -4.54373570       9.62083169       8.72281130        0       0.00025967      -0.00009093      -0.00363226
Ti      -3.02661411       8.74524626      11.33864196        0       0.00037864      -0.00007286      -0.00302258
O       -4.55239512       9.62570081      12.23008024        3       0.00003811       0.00006182       0.13683366
O       -3.02906616       8.74652809       7.78608305        1       0.00000649      -0.00000764      -0.00568330
C        3.03031210      -0.00021684      10.01419699        2       0.00034612      -0.00084182      -0.00321294
Ti       3.03026463       1.74971244       8.71519019        0       0.00037179      -0.00070212       0.00080899
Ti       4.54512072       0.87578282      11.29834911        0       0.00018934      -0.00130682       0.00077799
O        3.03005211       1.75365019      12.23008024        3       0.00038930      -0.00051756       0.12988872
O        4.54415643       0.87135738       7.77897449        1       0.00065682       0.00140026      -0.00114778
C        1.51498922       2.62470999      10.00352538        2       0.00077796      -0.00007835       0.00009245
Ti       1.51491827       4.37337193       8.71306954        0       0.00041811       0.00018162      -0.00071316
Ti       3.03034384       3.49977534      11.29296628        0       0.00035635      -0.00028381      -0.00033194
O        1.51553366       4.37318386      12.23008024        3       0.00036486      -0.00001449       0.11283430
O        3.02978667       3.49687623       7.77386312        1       0.00022189       0.00078293       0.00043349
C        0.00063643       5.24724490      10.00514244        2       0.00030921       0.00041645      -0.00030725
Ti       0.00035885       6.99733929       8.71791663        0      -0.00024631       0.00019098       0.00036999
Ti       1.51654058       6.12201612      11.29302405        0       0.00012515      -0.00000705      -0.00018739
O        0.00473163       6.99435797      12.23008024        3      -0.00011452       0.00013633       0.09029173
O        1.51274922       6.12411652       7.77507979        1       0.00120955      -0.00064355       0.00037057
C       -1.51518090       7.87227094      10.01747625        2      -0.00031536       0.00031774      -0.00352372
Ti      -1.51577710       9.62118689       8.72516627        0       0.00039496      -0.00009328      -0.00444369
Ti       0.00014498       8.74558917      11.30563074        0      -0.00085407       0.00030531       0.00121640
O       -1.50897740       9.62725778      12.23008024        3      -0.00003954       0.00005213       0.08932943
O       -0.00289905       8.74684542       7.78060174        1       0.00170357      -0.00018726      -0.00159975
C        6.06097661       0.00044739      10.00763740        2      -0.00014040      -0.00032088      -0.00145358
Ti       6.05972791       1.74911810       8.71407318        0      -0.00011209       0.00001337       0.00062725
Ti       7.57523010       0.87511235      11.29379822        0       0.00017771      -0.00014035      -0.00031444
O        6.06283876       1.75210655      12.23008024        3      -0.00006008       0.00004597       0.12382410
O        7.57436671       0.87400531       7.77430691        1       0.00055117       0.00018952       0.00034839
C        4.54534345       2.62539934      10.00345305        2      -0.00016098      -0.00019643      -0.00012581
Ti       4.54531736       4.37331321       8.71276004        0       0.00010984      -0.00002435      -0.00155072
Ti       6.05976938       3.49905744      11.29342307        0      -0.00006485       0.00003578      -0.00063665
O        4.54524557       4.37363104      12.23008024        3       0.00043344      -0.00033388       0.11257448
O        6.06079499       3.49819534       7.77375651        1       0.00001978       0.00012779       0.00069224
C        3.03054421       5.24794539      10.00209472        2       0.00040201      -0.00014668       0.00052191
Ti       3.03003962       6.99764255       8.71306712        0       0.00008307      -0.00032318      -0.00082170
Ti       4.54459422       6.12237868      11.29298140        0       0.00040328      -0.00024253      -0.00032092
O        3.03088213       6.99706451      12.23008024        3       0.00020083      -0.00022585       0.11522770
O        4.54642747       6.12392202       7.77370518        1      -0.00042797      -0.00042705       0.00048188
C        1.51602915       7.87203548      10.00528066        2      -0.00017986      -0.00032372      -0.00034338
Ti       1.51432906       9.62119526       8.71493279        0       0.00019029      -0.00031179       0.00046329
Ti       3.03020355       8.74628743      11.29308803        0       0.00016541      -0.00046135      -0.00061094
O        1.51960327       9.62361078      12.23008024        3       0.00018461      -0.00021476       0.13459545
O        3.02957364       8.74742053       7.77412316        1       0.00048766      -0.00034949       0.00066134
C        9.09025600       0.00007000      10.00305561        2       0.00017802      -0.00033396      -0.00001727
Ti       9.09001483       1.74933454       8.71251154        0       0.00019960      -0.00004648      -0.00094208
Ti      10.60518831       0.87453838      11.29357500        0       0.00018772      -0.00005446      -0.00033052
O        9.09052331       1.74944647      12.23008024        3       0.00016089      -0.00000143       0.13060907
O       10.60562455       0.87438299       7.77344624        1       0.00006192      -0.00001073       0.00038409
C        7.57525996       2.62397814      10.00285004        2      -0.00003134       0.00007314       0.00005364
Ti       7.57515864       4.37381152       8.71373494        0      -0.00002824       0.00021150       0.00074537
Ti       9.08978567       3.49846426      11.29365552        0       0.00032606      -0.00000368      -0.00027021
O        7.57436468       4.37036579      12.23008024        3       0.00003814       0.00017027       0.11262316
O        9.09032410       3.49952897       7.77406986        1       0.00012636      -0.00042291       0.00044132
C        6.05911023       5.24733786      10.00314979        2       0.00003967       0.00025954       0.00003490
Ti       6.05985370       6.99720879       8.71483238        0       0.00087341       0.00014346       0.00095294
Ti       7.57397479       6.12220751      11.29715134        0       0.00122640       0.00049528       0.00084106
O        6.05718800       6.99611635      12.23008024        3       0.00081893       0.00012575       0.12836661
O        7.57745678       6.12523631       7.77851100        1      -0.00084304      -0.00113632      -0.00086457
C        4.54448631       7.87194556      10.00331062        2       0.00050043      -0.00060650       0.00020468
Ti       4.54552605       9.62129284       8.71320513        0       0.00024948      -0.00045393       0.00053668
Ti       6.05949833       8.74564003      11.29538477        0       0.00105785       0.00022469       0.00062402
O        4.54356199       9.62234020      12.23008024        3       0.00040750      -0.00042778       0.12531399
O        6.06292537       8.74714166       7.77763934        1      -0.00112721      -0.00037768      -0.00067813
C        0.04118619       0.06971350      17.10507372       10       0.00597865       0.00101121      -0.00465905
C        1.25177721       0.76917294      17.08978167       10      -0.00056025      -0.00141279       0.01603845
C       -1.16880943       2.16801745      17.11039442       10      -0.00180973       0.00184057      -0.02984672
C        0.04311209       2.86787701      17.09268399       10      -0.00115702       0.00114389      -0.01752740
C       -2.38071366       4.26538705      17.10507372       10      -0.00425828       0.00152485       0.00041054
C       -1.16983257       4.96430782      17.08978167       10      -0.00096555       0.00080809       0.01938465
C       -3.58796554       6.36799084      17.04196297       10      -0.00314531       0.00122808      -0.02203238
C       -2.38105281       7.05056539      17.00014075       10       0.00062938      -0.00094824      -0.48511684
C       -4.80148077       8.46926070      17.04196297       10       0.00299361      -0.00017301      -0.02594245
C       -3.60707846       9.17359988      17.00014075       10      -0.00142613      -0.00150480      -0.46068384
C        2.46558486       0.06395966      17.04196297       10       0.00263666      -0.00240283      -0.02283506
C        3.67900069       0.76675111      17.00988429       10       0.00337900       0.00232006       0.17587415
C        1.25467536       2.16739938      17.07873870       10       0.00051444      -0.00060603      -0.03197889
C        2.46688042       2.86651264      17.05682429       10      -0.00037624       0.00089341      -0.04054308
C        0.04243012       4.26732302      17.07873870       10       0.00022547      -0.00081675      -0.02458590
C        1.25421669       4.96722361      17.05682429       10      -0.00222134       0.00047723      -0.05170608
C       -1.17392585       6.36816967      17.04196297       10       0.00112110       0.00155526      -0.03427548
C        0.04172825       7.06713068      17.00988429       10      -0.00039503      -0.00136948       0.16312233
C       -2.38152338       8.46610773      16.54733509       10       0.00124485      -0.00238935       0.20442800
C       -1.15534638       9.17346695      17.00014075       10       0.00042242       0.00244387      -0.48262025
C        4.89219466       0.06380763      17.04196297       10      -0.00040629      -0.00347078      -0.01752074
C        6.10614420       0.76883392      17.08978167       10       0.00047136       0.00200919       0.00607520
C        3.67931166       2.16400008      17.04221800       10      -0.00232485       0.00164849      -0.10087448
C        4.89184264       2.86635833      17.05682429       10      -0.00152205       0.00068581      -0.04686392
C        2.46666927       4.26663558      17.05414268       10      -0.00227700       0.00022934      -0.00572168
C        3.67944331       4.96674893      17.04914191       10      -0.00118914       0.00155256      -0.05642309
C        1.25191545       6.36841831      17.04221800       10       0.00029972      -0.00006963      -0.10028285
C        2.46652770       7.06703125      17.05682429       10       0.00066647       0.00134477      -0.05428217
C        0.03925015       8.46934041      17.04196297       10      -0.00095738      -0.00191108      -0.03041077
C        1.25707098       9.16767638      17.08978167       10      -0.00058388       0.00442137       0.01388847
C        7.31674397       0.06957290      17.10507372       10      -0.00168691      -0.00198517      -0.00033224
C        8.52813476       0.76893705      17.11201224       10      -0.00054190       0.00113802      -0.01660020
C        6.10378112       2.16707576      17.07873870       10      -0.00154910       0.00320607      -0.03564801
C        7.31532418       2.86761217      17.09268399       10      -0.00274633      -0.00086323      -0.01368090
C        4.89219506       4.26651802      17.05414268       10      -0.00104102       0.00153506      -0.02004733
C        6.10465300       4.96687559      17.05682429       10      -0.00245416       0.00117516      -0.05086343
C        3.67941932       6.36718566      17.05414268       10      -0.00175951      -0.00007921      -0.01092225
C        4.89206096       7.06693976      17.05682429       10      -0.00086552       0.00131106      -0.04141444
C        2.46683322       8.46636449      17.07873870       10      -0.00308547      -0.00144246      -0.02590569
C        3.67907597       9.16533154      17.09268399       10      -0.00028544       0.00276695      -0.01670196
C        9.73905191       0.06858222      17.11039442       10       0.00195821      -0.00019892      -0.02453167
C       10.94987499       0.76914126      17.11201224       10      -0.00106402      -0.00182498      -0.01982268
C        8.52720530       2.16784076      17.11039442       10      -0.00318285       0.00250448      -0.02934910
C        9.73913412       2.86655780      17.11201224       10       0.00227389      -0.00123109      -0.01541459
C        7.31630441       4.26706777      17.07873870       10      -0.00241662       0.00039680      -0.04306162
C        8.52834257       4.96414619      17.08978167       10       0.00235101      -0.00071100       0.00441875
C        6.10662536       6.36818594      17.04221800       10      -0.00125549      -0.00221663      -0.09643691
C        7.31656216       7.06702663      17.00988429       10       0.00035202      -0.00233641       0.17673882
C        4.89146117       8.46631666      17.07873870       10       0.00144452      -0.00048457      -0.02915736
C        6.10092234       9.16786930      17.08978167       10      -0.00288832      -0.00246812       0.01942966
O       -2.38519783       8.46896069      15.19253799       11       0.00369442      -0.00173862      -0.00067002
