131
Lattice="12.12 0.0 0.0 -6.06 10.496227893867395 0.0 0.0 0.0 40.0" Properties=species:S:1:pos:R:3:tags:I:1:forces:R:3 energy=-1204.3589626418327 stress="0.002839930262221204 -3.747595287427918e-07 -4.998961149435153e-06 -3.747595287427918e-07 0.002840102426175065 2.2758166789549776e-06 -4.998961149435153e-06 2.2758166789549776e-06 0.0020541418650033157" pbc="T T F"
C       -0.00087972       0.00037850      10.00277853        2      -0.00042448       0.00016225      -0.00000099
Ti       0.00045984       1.74938055       8.69052493        0      -0.00067057       0.00020797       0.00049583
Ti       1.51462074       0.87560237      11.31193041        0      -0.00003902      -0.00073133       0.00159146
O       -0.00079569       1.74868101      12.23159545        3      -0.00084202       0.00039196       0.14071035
O        1.51616776       0.87287859       7.77359127        1      -0.00043696       0.00005908       0.00059807
C       -1.51508665       2.62424856      10.00252721        2      -0.00043982       0.00030289      -0.00015585
Ti      -1.51517681       4.37421089       8.69427112        0      -0.00038199       0.00009801       0.00078984
Ti      -0.00019143       3.49888433      11.31266420        0      -0.00025344       0.00062161      -0.00026445
O       -1.51481350       4.37225466      12.23159545        3      -0.00049788      -0.00080807       0.15289468
O       -0.00078976       3.49959010       7.77170283        1      -0.00062187       0.00025144       0.00016594
C       -3.03069431       5.24778362      10.00609214        2      -0.00073789       0.00012435       0.00036867
Ti      -3.03056697       6.99675718       8.70050901        0      -0.00075322       0.00032040       0.00128240
Ti      -1.51665160       6.12584599      11.32387644        0      -0.00172776       0.00178913       0.00280034
O       -3.03370155       6.99559541      12.23159545        3      -0.00091402      -0.00000390       0.07781185
O       -1.51564035       6.12554064       7.77882664        1      -0.00066110       0.00055685       0.00163075
C       -4.54603055       7.87209063      10.00908989        2      -0.00098812       0.00017375      -0.00032572
Ti      -4.54514888       9.62160902       8.69791809        0      -0.00064990       0.00025831       0.00092832
Ti      -3.03106317       8.74721933      11.33983571        0       0.00018634      -0.00004901       0.00211647
O       -4.54686566       9.62240297      12.23159545        3      -0.00099569       0.00067306       0.11330091
O       -3.02858822       8.74614217       7.78208963        1      -0.00048282       0.00016215       0.00124904
C        3.02955772       0.00050114      10.00949752        2      -0.00068063       0.00066916      -0.00046967
Ti       3.02971443       1.74856557       8.69552004        0      -0.00043351       0.00040413       0.00041143
Ti       4.54290194       0.87756622      11.31772419        0      -0.00103488      -0.00161053       0.00209641
O        3.02791750       1.75243061      12.23159545        3      -0.00084077       0.00059922       0.14706692
O        4.54450407       0.87226359       7.77599389        1      -0.00048651       0.00000518       0.00100367
C        1.51438179       2.62388446      10.00267966        2      -0.00036389       0.00018635       0.00007841
Ti       1.51451115       4.37363035       8.69132692        0      -0.00043187       0.00001155       0.00082186
Ti       3.02950896       3.49977762      11.31273757        0      -0.00049098       0.00016373      -0.00046430
O        1.51461839       4.37258562      12.23159545        3      -0.00034114       0.00000519       0.15961193
O        3.02971862       3.49753737       7.77212049        1      -0.00052071       0.00031121      -0.00023847
C        0.00047378       5.24770449      10.00525383        2      -0.00034672       0.00020029       0.00044263
Ti       0.00045300       6.99722035       8.70002421        0      -0.00026137       0.00007083       0.00095482
Ti       1.51605897       6.12197291      11.31202503        0      -0.00094612       0.00047772       0.00076132
O        0.00026492       6.99704451      12.23159545        3      -0.00056297       0.00015287       0.12445941
O        1.51276493       6.12410563       7.77291537        1      -0.00060390       0.00030517       0.00074059
C       -1.51597866       7.87270080      10.01615129        2      -0.00055175       0.00024914      -0.00016715
Ti      -1.51471803       9.62228215       8.70079580        0      -0.00071789       0.00035311       0.00126381
Ti      -0.00330229       8.74662967      11.32472116        0      -0.00268111       0.00052223       0.00292657
O       -1.51554177       9.62543374      12.23159545        3      -0.00059529       0.00076092       0.07296101
O       -0.00264606       8.74618257       7.77915401        1      -0.00084829       0.00015460       0.00166463
C        6.05987958       0.00061796      10.00680788        2      -0.00052232       0.00048068       0.00028699
Ti       6.05961003       1.74891770       8.69356575        0      -0.00042409       0.00025856       0.00071032
Ti       7.57459707       0.87502998      11.31253123        0      -0.00116507       0.00019748       0.00032147
O        6.06008108       1.75061217      12.23159545        3      -0.00055209       0.00087166       0.14168497
O        7.57383020       0.87390253       7.77273320        1      -0.00050962       0.00003145       0.00023314
C        4.54477010       2.62471037      10.00418814        2      -0.00063479       0.00051249      -0.00002585
Ti       4.54496588       4.37333092       8.69053643        0      -0.00037223       0.00019797       0.00051625
Ti       6.05939501       3.49919929      11.31246511        0      -0.00131320       0.00058412      -0.00038098
O        4.54402731       4.37366061      12.23159545        3      -0.00083887       0.00038765       0.13646877
O        6.06036942       3.49835859       7.77220399        1      -0.00026783       0.00008661      -0.00001140
C        3.02977702       5.24810119      10.00257690        2      -0.00055281       0.00026697      -0.00003034
Ti       3.02954108       6.99784387       8.69148596        0      -0.00029113       0.00028273       0.00083554
Ti       4.54355926       6.12239114      11.31283631        0      -0.00050902       0.00026195      -0.00072586
O        3.03025464       6.99770952      12.23159545        3      -0.00029340       0.00008315       0.15344584
O        4.54570452       6.12354357       7.77210837        1      -0.00061644       0.00025587      -0.00033433
C        1.51554262       7.87186689      10.00557974        2      -0.00042612       0.00005052       0.00047962
Ti       1.51417442       9.62135057       8.69475658        0      -0.00037436       0.00021039       0.00083928
Ti       3.02966941       8.74684516      11.31279069        0      -0.00084222      -0.00011675      -0.00021214
O        1.51595704       9.62206408      12.23159545        3       0.00025712       0.00064657       0.14159343
O        3.02865318       8.74716087       7.77188846        1      -0.00061489       0.00034592       0.00017945
C        9.08979882       0.00010540      10.00268254        2      -0.00058191       0.00010214      -0.00002482
Ti       9.08970490       1.74945527       8.69060420        0      -0.00025061       0.00016736       0.00016936
Ti      10.60503491       0.87472221      11.31334775        0      -0.00031666       0.00001758      -0.00078838
O        9.09093106       1.74921784      12.23159545        3      -0.00028936       0.00012831       0.14969058
O       10.60489804       0.87470389       7.77094092        1      -0.00049570       0.00022331      -0.00047436
C        7.57486366       2.62417513      10.00324490        2      -0.00072101       0.00031881       0.00031930
Ti       7.57523351       4.37395359       8.69290007        0      -0.00048934       0.00010419       0.00072412
Ti       9.08953869       3.49920509      11.31255919        0      -0.00087752       0.00061674       0.00008571
O        7.57438279       4.37306904      12.23159545        3      -0.00102240      -0.00003919       0.12872736
O        9.09007903       3.49991443       7.77240882        1      -0.00033461       0.00035780       0.00015335
C        6.05938186       5.24800217      10.00395390        2      -0.00080561       0.00020947       0.00002784
Ti       6.06056013       6.99818932       8.69497551        0      -0.00064658       0.00005109       0.00057850
Ti       7.57084094       6.12298675      11.31597162        0       0.00082588       0.00149498       0.00203975
O        6.05558100       6.99725116      12.23159545        3      -0.00098784       0.00029659       0.14393887
O        7.57675266       6.12443888       7.77528404        1      -0.00033044       0.00031249       0.00107822
C        4.54460819       7.87277121      10.00264373        2      -0.00043369       0.00011853       0.00021601
Ti       4.54514779       9.62112566       8.69056980        0      -0.00060565       0.00042128       0.00052662
Ti       6.05859986       8.74641629      11.31185856        0       0.00063320       0.00043969       0.00160082
O        4.54511658       9.62292743      12.23159545        3      -0.00071348       0.00047175       0.14655841
O        6.06203608       8.74688131       7.77334539        1      -0.00042089       0.00020883       0.00069867
C        0.04168066       0.06968617      17.67500998       10      -0.00138704      -0.00068754      -0.06122026
C        1.25044603       0.77024511      17.65971793       10       0.00558156      -0.00106110      -0.05740527
C       -1.16864611       2.16762993      17.68033068       10      -0.00050329      -0.00088027      -0.04570090
C        0.04314934       2.86718502      17.66262025       10      -0.00003614      -0.00119919      -0.04120173
C       -2.38025445       4.26448324      17.67500998       10      -0.00027260      -0.00216252      -0.01074500
C       -1.16902185       4.96082939      17.65971793       10      -0.00014570      -0.00029168      -0.00663472
C       -3.58572490       6.36674244      17.61189923       10       0.00088852      -0.00147192       0.01096274
C       -2.38002168       7.04776792      17.57007701       10       0.00046718       0.00272909      -0.08842884
C       -4.79980087       8.47050192      17.61189923       10      -0.00200488      -0.00104023      -0.01430390
C       -3.60643444       9.17350918      17.57007701       10       0.00657987      -0.00166042      -0.13206764
C        2.46556329       0.06238231      17.61189923       10       0.00312524      -0.00398428      -0.01613791
C        3.67995974       0.76735985      17.57982055       10       0.00068693      -0.00064039      -0.07743324
C        1.25551507       2.16827456      17.64867496       10       0.00049795      -0.00126766      -0.05095862
C        2.46680441       2.86626269      17.62676055       10      -0.00012777       0.00123817      -0.04186946
C        0.04411496       4.26631297      17.64867496       10       0.00014615      -0.00051363      -0.03975329
C        1.25426273       4.96647833      17.62676055       10       0.00100806      -0.00028294      -0.01649243
C       -1.17437155       6.36652859      17.61189923       10      -0.00140185      -0.00011931      -0.01870566
C        0.04319011       7.06638878      17.57982055       10       0.00056909      -0.00116549      -0.04792704
C       -2.37881154       8.46465298      17.11727135       10       0.00132153       0.00055098      -0.29029548
C       -1.15246437       9.17432053      17.57007701       10      -0.00009606      -0.00138121      -0.08498015
C        4.89460892       0.06284593      17.61189923       10       0.00167651      -0.00084686       0.00375156
C        6.10930270       0.77044529      17.65971793       10       0.00146908       0.00001843      -0.02316373
C        3.67988968       2.16370544      17.61215426       10       0.00031109       0.00057716      -0.02841074
C        4.89278349       2.86616624      17.62676055       10       0.00061651       0.00108559      -0.05884513
C        2.46805557       4.26699330      17.62407894       10       0.00056808       0.00087440      -0.03830325
C        3.67983965       4.96681848      17.61907817       10      -0.00053941       0.00001151      -0.05731787
C        1.25254609       6.36811725      17.61215426       10       0.00143281      -0.00066831      -0.06688839
C        2.46731421       7.06744448      17.62676055       10       0.00073884       0.00037538      -0.01269828
C        0.04035662       8.47075613      17.61189923       10       0.00128903      -0.00075752      -0.02025653
C        1.26047560       9.16890669      17.65971793       10       0.00102702       0.00082637      -0.00173175
C        7.31787192       0.06980730      17.67500998       10       0.00341907       0.00155738      -0.01578065
C        8.52987089       0.76949754      17.68194850       10       0.00318429       0.00158543      -0.03349300
C        6.10421915       2.16831085      17.64867496       10       0.00160805       0.00008741      -0.00682447
C        7.31643294       2.86710481      17.66262025       10       0.00228726      -0.00021957      -0.06001439
C        4.89186777       4.26703098      17.62407894       10      -0.00101859       0.00087103      -0.01163950
C        6.10550919       4.96663239      17.62676055       10      -0.00074659      -0.00012171      -0.06645300
C        3.68000732       6.36614635      17.62407894       10      -0.00047992      -0.00104631      -0.03683471
C        4.89242739       7.06756459      17.62676055       10      -0.00031203      -0.00127260      -0.04153718
C        2.46857942       8.46553053      17.64867496       10       0.00178430       0.00083842      -0.04434165
C        3.67980514       9.16597808      17.66262025       10       0.00106006       0.00100740      -0.02911572
C        9.73966258       0.06894027      17.68033068       10      -0.00039496      -0.00124750      -0.04376358
C       10.94933766       0.76956462      17.68194850       10       0.00473023       0.00014415      -0.05881046
C        8.52801040       2.16755908      17.68033068       10       0.00201882      -0.00082905      -0.01030585
C        9.73970229       2.86497011      17.68194850       10       0.00159831      -0.00218625      -0.03934813
C        7.31563527       4.26639596      17.64867496       10      -0.00123941      -0.00131166      -0.00628479
C        8.52875884       4.96100809      17.65971793       10       0.00106404      -0.00337866      -0.03435089
C        6.10744224       6.36832343      17.61215426       10       0.00008376      -0.00029930      -0.01840178
C        7.31675252       7.06641468      17.57982055       10       0.00175530      -0.00132385      -0.07690280
C        4.89135166       8.46555296      17.64867496       10      -0.00121752      -0.00196335      -0.04168238
C        6.09947632       9.16877165      17.65971793       10       0.00408756       0.00098333      -0.04920654
O       -2.36820425       8.45942965      15.78709289       11      -0.00095820       0.00144994      -0.00537948
