131
Lattice="12.12 0.0 0.0 -6.06 10.496227893867395 0.0 0.0 0.0 40.0" Properties=species:S:1:pos:R:3:tags:I:1:forces:R:3 energy=-1205.792867173999 stress="0.0029288943009655507 -1.098456608466577e-06 -1.8164791624385916e-06 -1.098456608466577e-06 0.0029277394306931946 3.1615572576111455e-06 -1.8164791624385916e-06 3.1615572576111455e-06 0.0024009413768740252" pbc="T T F"
C       -0.00088952       0.00060307      10.00580684        2      -0.00003179       0.00033183      -0.00154269
Ti       0.00026740       1.74919862       8.71505143        0       0.00017868       0.00075193       0.00006337
Ti       1.51517320       0.87676286      11.29998206        0      -0.00006207      -0.00072652       0.00056153
O       -0.00252955       1.75019700      12.23008024        3       0.00079507       0.00042654       0.12584693
O        1.51662775       0.87179017       7.78100390        1      -0.00066688       0.00186054      -0.00107006
C       -1.51512482       2.62410782      10.00402977        2      -0.00001459       0.00050918      -0.00004167
Ti      -1.51518284       4.37485021       8.71821721        0       0.00008439       0.00055931       0.00009846
Ti       0.00071471       3.49895985      11.29744674        0      -0.00015717       0.00053254      -0.00072732
O       -1.51457239       4.36794318      12.23008024        3       0.00003010       0.00065773       0.12467472
O       -0.00113455       3.49943105       7.77714923        1       0.00025292       0.00029124       0.00061941
C       -3.03009828       5.24707825      10.00983687        2      -0.00019832       0.00072322      -0.00223447
Ti      -3.03040821       6.99875054       8.73055674        0      -0.00012880       0.00026451      -0.00522800
Ti      -1.51530573       6.12450361      11.31357771        0      -0.00140259       0.00145004       0.00109395
O       -3.03575296       6.98461951      12.23008024        3      -0.00093867      -0.00034304       0.00463130
O       -1.51660301       6.12678525       7.78583256        1       0.00063454      -0.00081886      -0.00222713
C       -4.54437664       7.87305830      10.01751962        2       0.00086299       0.00086087      -0.00365240
Ti      -4.54363648       9.62081218       8.72579392        0      -0.00026986       0.00044845      -0.00411551
Ti      -3.02859555       8.74679480      11.34467140        0      -0.00028541       0.00050709      -0.00456490
O       -4.55627269       9.62829094      12.23008024        3      -0.00064244       0.00069923       0.10919418
O       -3.02838205       8.74617872       7.79055759        1      -0.00057316       0.00053421      -0.00652603
C        3.02963058      -0.00059610      10.01768822        2      -0.00001447      -0.00073416      -0.00383251
Ti       3.03017506       1.75026340       8.71732368        0       0.00004163       0.00008059       0.00005186
Ti       4.54461117       0.87685170      11.30348290        0      -0.00025949      -0.00097510       0.00076081
O        3.02819359       1.75549420      12.23008024        3      -0.00014213       0.00001278       0.09219222
O        4.54381315       0.87042378       7.78309805        1       0.00010219       0.00196644      -0.00161268
C        1.51456289       2.62509011      10.00426040        2       0.00061507       0.00048086      -0.00035644
Ti       1.51466951       4.37340570       8.71503966        0       0.00001766       0.00073746      -0.00021174
Ti       3.02998429       3.50013089      11.29736429        0       0.00011434       0.00015992      -0.00039151
O        1.51520857       4.37326577      12.23008024        3      -0.00024157       0.00044024       0.09366757
O        3.02937916       3.49677733       7.77667534        1      -0.00019556       0.00129033       0.00029499
C        0.00039608       5.24764587      10.00749344        2      -0.00019096       0.00100043      -0.00077419
Ti       0.00064407       6.99739680       8.72284097        0      -0.00043748       0.00055625      -0.00063721
Ti       1.51746974       6.12168742      11.29685256        0      -0.00033076       0.00045779       0.00018870
O        0.00727118       6.99401704      12.23008024        3      -0.00057388       0.00066550       0.10173344
O        1.51141166       6.12499851       7.77861321        1       0.00077964      -0.00014810       0.00039330
C       -1.51618242       7.87321561      10.02493136        2      -0.00099786       0.00090064      -0.00416233
Ti      -1.51608652       9.62144498       8.73097837        0      -0.00006480       0.00044246      -0.00538690
Ti      -0.00181410       8.74723068      11.31512233        0      -0.00176221       0.00077261       0.00095542
O       -1.50601837       9.63412572      12.23008024        3       0.00023149       0.00149296      -0.02523905
O       -0.00421585       8.74655208       7.78595400        1       0.00129056       0.00023703      -0.00236987
C        6.06117070       0.00110344      10.00986469        2      -0.00044621       0.00019099      -0.00238375
Ti       6.05954927       1.74929663       8.71651203        0      -0.00060303       0.00048831       0.00061708
Ti       7.57513760       0.87594136      11.29771043        0      -0.00019367       0.00027616      -0.00029956
O        6.06326942       1.75287339      12.23008024        3      -0.00072100       0.00044487       0.10412531
O        7.57392235       0.87391948       7.77729073        1       0.00037576       0.00077331       0.00036355
C        4.54495566       2.62614225      10.00442324        2      -0.00059812       0.00048503      -0.00054347
Ti       4.54516078       4.37346124       8.71492404        0      -0.00027392       0.00038533      -0.00164380
Ti       6.05895983       3.49946397      11.29772871        0      -0.00054655       0.00052393      -0.00085578
O        4.54453110       4.37424925      12.23008024        3      -0.00005165       0.00023955       0.08856561
O        6.06102048       3.49827779       7.77681718        1      -0.00040433       0.00051403       0.00047795
C        3.03025118       5.24822531      10.00277971        2      -0.00011602       0.00034058       0.00062276
Ti       3.03005738       6.99797033       8.71505130        0      -0.00047848       0.00005407      -0.00024128
Ti       4.54410538       6.12242167      11.29742641        0       0.00008145       0.00038322      -0.00038766
O        3.03091434       6.99808998      12.23008024        3      -0.00034929       0.00049533       0.09176074
O        4.54646567       6.12444603       7.77657578        1      -0.00095473      -0.00006136       0.00030183
C        1.51580337       7.87244661      10.00753252        2      -0.00076066       0.00007608      -0.00082870
Ti       1.51381415       9.62116263       8.71841136        0      -0.00022768       0.00003049       0.00008319
Ti       3.03037341       8.74639351      11.29740854        0      -0.00037920       0.00029994      -0.00055572
O        1.52109002       9.62476346      12.23008024        3      -0.00024467       0.00016076       0.12696715
O        3.02888059       8.74768362       7.77707308        1       0.00019013       0.00000657       0.00069556
C        9.09007674       0.00036714      10.00384545        2      -0.00023299       0.00023508      -0.00003448
Ti       9.08973832       1.74960376       8.71398194        0      -0.00027908       0.00040950      -0.00084599
Ti      10.60444407       0.87500960      11.29774830        0      -0.00021922       0.00050759      -0.00049609
O        9.09046270       1.74938103      12.23008024        3      -0.00042405       0.00056532       0.10364781
O       10.60537989       0.87462446       7.77580758        1      -0.00047495       0.00051870       0.00034911
C        7.57513627       2.62419722      10.00393940        2      -0.00063114       0.00058796      -0.00003707
Ti       7.57496271       4.37400572       8.71661950        0      -0.00052021       0.00068328       0.00046830
Ti       9.08935108       3.49841372      11.29792380        0      -0.00019930       0.00032198      -0.00035262
O        7.57356564       4.36909585      12.23008024        3      -0.00058910       0.00057373       0.10752530
O        9.09028186       3.50028285       7.77731198        1      -0.00027765      -0.00030535       0.00033749
C        6.05842151       5.24736566      10.00433871        2      -0.00050825       0.00066018      -0.00045292
Ti       6.05941733       6.99705026       8.71730296        0       0.00021209       0.00034814      -0.00000410
Ti       7.57320047       6.12236189      11.30310429        0       0.00074723       0.00111662       0.00085644
O        6.05453030       6.99607491      12.23008024        3       0.00009847       0.00053896       0.09528027
O        7.57828887       6.12613518       7.78297222        1      -0.00146047      -0.00063722      -0.00147484
C        4.54415159       7.87221388      10.00403801        2       0.00007629      -0.00030485      -0.00023739
Ti       4.54534605       9.62151858       8.71487595        0      -0.00028835      -0.00014646       0.00021414
Ti       6.05850910       8.74605697      11.29951391        0       0.00069059       0.00093071       0.00057305
O        4.54283950       9.62328642      12.23008024        3       0.00008274      -0.00010818       0.11034985
O        6.06352366       8.74706901       7.78086835        1      -0.00168501       0.00000925      -0.00092284
C        0.04167093       0.06926356      16.67875793       10       0.00796587       0.00056770       0.01183401
C        1.25246201       0.76852834      16.66346588       10      -0.00010609      -0.00197987       0.00935549
C       -1.16829529       2.16761925      16.68407863       10      -0.00166104       0.00186893      -0.01698574
C        0.04371259       2.86732131      16.66636820       10      -0.00060346       0.00062033      -0.00687476
C       -2.38020557       4.26499784      16.67875793       10      -0.00407033       0.00153759      -0.00451606
C       -1.16944798       4.96363076      16.66346588       10       0.00005541       0.00019472       0.01291510
C       -3.58731535       6.36763491      16.61564718       10      -0.00273760       0.00084782      -0.01659937
C       -2.38066546       7.05037399      16.57382496       10       0.00181464      -0.00230198      -0.46367302
C       -4.80047894       8.46879647      16.61564718       10       0.00414428      -0.00070770      -0.01752184
C       -3.60590988       9.17279599      16.57382496       10      -0.00140603      -0.00205211      -0.47128053
C        2.46640599       0.06306975      16.61564718       10       0.00381332      -0.00343951      -0.01580113
C        3.67945128       0.76648801      16.58356850       10       0.00466281       0.00213043       0.16847634
C        1.25524557       2.16690439      16.65242291       10       0.00117428      -0.00114749      -0.02150542
C        2.46734061       2.86605795      16.63050850       10       0.00033894       0.00011423      -0.04991424
C        0.04288562       4.26700044      16.65242291       10       0.00100868      -0.00144989      -0.02805410
C        1.25449308       4.96671640      16.63050850       10      -0.00149757      -0.00036670      -0.04519046
C       -1.17360025       6.36767552      16.61564718       10       0.00247052       0.00104074      -0.01069142
C        0.04233121       7.06639168      16.58356850       10       0.00054733      -0.00236488       0.16693037
C       -2.38068181       8.46500604      16.12101930       10       0.00234737      -0.00365791       0.39807618
C       -1.15547142       9.17262128      16.57382496       10       0.00149305       0.00257726      -0.46818201
C        4.89258855       0.06293465      16.61564718       10       0.00046152      -0.00480338      -0.01303960
C        6.10651948       0.76826187      16.66346588       10       0.00128702       0.00186963       0.02163267
C        3.67969399       2.16372783      16.61590221       10      -0.00195698       0.00087539      -0.10022698
C        4.89218398       2.86597032      16.63050850       10      -0.00113475       0.00000483      -0.03175139
C        2.46690326       4.26639239      16.62782689       10      -0.00184560      -0.00053840      -0.00566446
C        3.67974872       4.96646119      16.62282612       10      -0.00048751       0.00084095      -0.03713318
C        1.25237398       6.36784190      16.61590221       10       0.00101193      -0.00065982      -0.08849939
C        2.46673665       7.06664896      16.63050850       10       0.00161275       0.00059270      -0.04356220
C        0.03944588       8.46878656      16.61564718       10      -0.00049369      -0.00304203      -0.01010619
C        1.25744846       9.16719658      16.66346588       10      -0.00009396       0.00431926       0.01629353
C        7.31706089       0.06889547      16.67875793       10      -0.00132517      -0.00343854      -0.00374437
C        8.52857165       0.76850192      16.68569645       10      -0.00014353       0.00040249      -0.02319939
C        6.10415512       2.16654768      16.65242291       10      -0.00109271       0.00286911      -0.03246043
C        7.31575289       2.86707635      16.66636820       10      -0.00285743      -0.00183998       0.00871136
C        4.89248878       4.26617966      16.62782689       10      -0.00023843       0.00105475      -0.01217813
C        6.10491983       4.96658908      16.63050850       10      -0.00207991       0.00040248      -0.02413709
C        3.67944430       6.36689557      16.62782689       10      -0.00105241      -0.00058567      -0.00980681
C        4.89238374       7.06656220      16.63050850       10      -0.00022282       0.00042664      -0.04473108
C        2.46706690       8.46584068      16.65242291       10      -0.00303084      -0.00245418      -0.03177673
C        3.67962798       9.16489614      16.66636820       10      -0.00002150       0.00234036      -0.01113540
C        9.73938080       0.06806927      16.68407863       10       0.00322904      -0.00097302      -0.02165062
C       10.95032296       0.76867943      16.68569645       10      -0.00056028      -0.00292679      -0.02588836
C        8.52768336       2.16734064      16.68407863       10      -0.00300966       0.00224749      -0.03401139
C        9.73958289       2.86603317      16.68569645       10       0.00315220      -0.00213604      -0.02194317
C        7.31658850       4.26661439      16.65242291       10      -0.00178327      -0.00021341      -0.03454577
C        8.52877400       4.96372632      16.66346588       10       0.00334491      -0.00165893       0.03004620
C        6.10682055       6.36781050      16.61590221       10      -0.00023524      -0.00302962      -0.09810111
C        7.31681904       7.06646853      16.58356850       10       0.00135743      -0.00366637       0.16857645
C        4.89190574       8.46587722      16.65242291       10       0.00251695      -0.00124414      -0.02546824
C        6.10164413       9.16739780      16.66346588       10      -0.00309424      -0.00372906       0.00559191
O       -2.37664549       8.46241837      14.77067907       11       0.00616770      -0.00530747       0.00141001
