132
Lattice="12.12 0.0 0.0 -6.06 10.496227893867395 0.0 0.0 0.0 40.0" Properties=species:S:1:pos:R:3:tags:I:1:forces:R:3 energy=-1210.2877315191115 stress="0.0028739417813005764 2.0590134254142465e-06 1.8070967581691456e-06 2.0590134254142465e-06 0.0028666258674490248 -1.2248909120119014e-06 1.8070967581691456e-06 -1.2248909120119014e-06 0.002335418006913476" pbc="T T F"
C        0.00105540       0.00408135      10.00447434        2      -0.00001101       0.00272928      -0.00208283
Ti       0.00016010       1.75517199       8.71702421        0       0.00059114       0.00022873      -0.00143675
Ti       1.51633440       0.87967371      11.29399500        0       0.00135952      -0.00036744       0.00309217
O        0.00017935       1.75306481      12.23008024        3       0.00474160      -0.00159480       0.09746302
O        1.51286383       0.88142076       7.77550078        1      -0.00022057      -0.00051872      -0.00005797
C       -1.51582302       2.62997113      10.01274609        2      -0.00002737       0.00092509       0.00414100
Ti      -1.51560820       4.37928907       8.72067394        0       0.00103747      -0.00100281      -0.00079494
Ti      -0.00192922       3.50306543      11.30829978        0       0.00144786      -0.00161816       0.00239599
O       -1.51241281       4.38303107      12.23008024        3      -0.00021921       0.00717934       0.03331402
O       -0.00229897       3.50397139       7.77986740        1       0.00236909       0.00041202       0.00020761
C       -3.03000203       5.25420436      10.00906924        2      -0.00041602      -0.00015210      -0.00263192
Ti      -3.03009257       7.00352089       8.71512788        0       0.00066624       0.00062232      -0.00077569
Ti      -1.51505796       6.12792994      11.29875777        0      -0.00071801      -0.00080336       0.00701685
O       -3.03111546       7.00519313      12.23008024        3      -0.00037233      -0.00152052       0.10839809
O       -1.51580573       6.12622102       7.77745753        1       0.00107594      -0.00187833      -0.00035020
C       -4.54531197       7.87804878      10.00336214        2       0.00217183       0.00044551      -0.00254938
Ti      -4.54532884       9.62694489       8.71337219        0       0.00213570      -0.00199585      -0.00127742
Ti      -3.02975465       8.75227851      11.29466940        0      -0.00036678      -0.00071749       0.00144159
O       -4.54398245       9.62541072      12.23008024        3      -0.00015515      -0.00181150       0.10618991
O       -3.03095324       8.75113844       7.77323798        1       0.00249459       0.00195419       0.00408999
C        3.03003066       0.00518575      10.00243195        2       0.00256334      -0.00013650      -0.00006337
Ti       3.02951073       1.75532135       8.71407453        0       0.00209005      -0.00072461      -0.00107470
Ti       4.54442555       0.88025413      11.29439127        0       0.00263727       0.00048432       0.00002872
O        3.03067228       1.75451088      12.23008024        3       0.00037248       0.00122932       0.10742806
O        4.54490282       0.88143088       7.77346751        1       0.00085989      -0.00234252       0.00394557
C        1.51511409       2.62904727      10.00666621        2      -0.00085558       0.00007748      -0.00374943
Ti       1.51411781       4.37874825       8.71679778        0      -0.00054600      -0.00066224       0.00023066
Ti       3.03021402       3.50428025      11.29523500        0      -0.00174249      -0.00390697       0.00144581
O        1.51876885       4.38070614      12.23008024        3       0.00000673      -0.00223894       0.11707075
O        3.02863827       3.50481511       7.77575968        1       0.00278435      -0.00206143       0.00013520
C       -0.00019218       5.25399610      10.00740469        2      -0.00029806      -0.00219432      -0.00156858
Ti      -0.00049519       7.00286325       8.71420480        0       0.00070273      -0.00028654       0.00288512
Ti       1.51496355       6.12867452      11.29520463        0      -0.00130710      -0.00068939       0.00294951
O        0.00092315       7.00438680      12.23008024        3       0.00078558      -0.00204189       0.12019534
O        1.51423230       6.12722356       7.77530248        1      -0.00061959       0.00202476       0.00353970
C       -1.51525079       7.87929213      10.00287989        2       0.00094921       0.00019480      -0.00119536
Ti      -1.51557925       9.62703329       8.71181222        0      -0.00038077      -0.00177719       0.00537785
Ti      -0.00044235       8.75238086      11.29386494        0       0.00121261      -0.00102544       0.00251576
O       -1.51517390       9.62723744      12.23008024        3       0.00017556      -0.00114052       0.09600629
O       -0.00032747       8.75167791       7.77313058        1       0.00391212       0.00066165       0.00401628
C        6.05871488       0.00444907      10.00234468        2       0.00067581       0.00047160       0.00184275
Ti       6.05904374       1.75449613       8.71382025        0       0.00140139      -0.00004440       0.00122804
Ti       7.57180740       0.87788767      11.29001565        0      -0.00250602      -0.00243295       0.00485833
O        6.05874548       1.75361009      12.23008024        3       0.00425657       0.00337190       0.09706664
O        7.57631798       0.88165751       7.77631639        1       0.00240282      -0.00038182       0.00122950
C        4.54443841       2.62918032      10.00352635        2       0.00074301      -0.00253980      -0.00100428
Ti       4.54493771       4.37880574       8.71451013        0       0.00142806      -0.00232651      -0.00190578
Ti       6.06084132       3.50290562      11.29599657        0       0.00065897       0.00104737       0.00273355
O        4.54456042       4.37964608      12.23008024        3      -0.00120650      -0.00347926       0.10206595
O        6.06187617       3.50452283       7.77643983        1      -0.00383450      -0.00307011       0.00104727
C        3.02976343       5.25349243      10.00391447        2      -0.00001792      -0.00061020      -0.00111206
Ti       3.02985385       7.00243180       8.71375625        0      -0.00196866       0.00242945      -0.00141857
Ti       4.54473485       6.12775762      11.29553624        0       0.00093526       0.00046922      -0.00028050
O        3.03059921       7.00273894      12.23008024        3      -0.00113568      -0.00057497       0.10392033
O        4.54529385       6.12790318       7.77483697        1      -0.00118605       0.00007983      -0.00063281
C        1.51468125       7.87771297      10.00285261        2      -0.00200835      -0.00017719       0.00119652
Ti       1.51442131       9.62661416       8.71273984        0      -0.00022632       0.00093439       0.00386699
Ti       3.02973454       8.75240975      11.29499753        0       0.00096845       0.00159664       0.00225295
O        1.51505185       9.62595056      12.23008024        3       0.00269079       0.00290021       0.09766720
O        3.03025954       8.75270984       7.77404732        1      -0.00223650       0.00090964       0.00581499
C        9.08946330       0.00497330      10.00546228        2       0.00244140       0.00330162       0.00171768
Ti       9.08921766       1.75523340       8.72022593        0       0.00191461       0.00083560       0.00140876
Ti      10.60908683       0.87733118      11.29088469        0       0.00720777      -0.00230465       0.00279000
O        9.09195429       1.74945112      12.23008024        3      -0.00795028       0.00055484       0.28045934
O       10.60407298       0.88208872       7.77795548        1       0.00027860      -0.00257948       0.00119203
C        7.57530536       2.62885059      10.00902229        2       0.00255820       0.00220531      -0.00064408
Ti       7.57549026       4.37845010       8.71701415        0      -0.00184392       0.00173191       0.00088186
Ti       9.09119526       3.50755984      11.31312885        0      -0.00375683       0.00594956       0.00026148
O        7.56965630       4.38132051      12.23008024        3       0.00035176       0.00050345       0.08602928
O        9.09102878       3.50349982       7.78025545        1      -0.00219748       0.00060474       0.00335789
C        6.06014749       5.25329143      10.00434205        2      -0.00167889       0.00094168      -0.00147108
Ti       6.06013046       7.00243357       8.71435174        0      -0.00032105      -0.00036589      -0.00146228
Ti       7.57469007       6.12818216      11.29592545        0       0.00014502      -0.00118530       0.00369291
O        6.05865627       7.00264827      12.23008024        3      -0.00001686       0.00326903       0.10861988
O        7.57583868       6.12623915       7.77642395        1      -0.00132827       0.00463239      -0.00036373
C        4.54511680       7.87761436      10.00344073        2      -0.00107555      -0.00157269      -0.00176594
Ti       4.54477957       9.62682900       8.71300966        0      -0.00028762      -0.00017080       0.00177752
Ti       6.06021332       8.75103247      11.29479139        0      -0.00001607       0.00190416       0.00240799
O        4.54407142       9.62370429      12.23008024        3       0.00001209       0.00360171       0.10557071
O        6.05927087       8.75237408       7.77427514        1       0.00116861      -0.00026101       0.00105075
C        0.05768824       0.06757945      16.85151747       10       0.00093904       0.00052340      -0.01035403
C        1.26671312       0.76990844      16.85990570       10       0.00003748      -0.00414104       0.00188118
C       -1.14039184       2.15689115      16.82714680       10      -0.00045862       0.00546243       0.24133813
C        0.05336647       2.86757391      16.83478554       10       0.00154405      -0.00332973       0.03087891
C       -2.37281377       4.29387826      16.82714125       10       0.00391318       0.00367318       0.46191784
C       -1.16179364       4.97295837      16.83478298       10       0.00419937      -0.00038310       0.00544915
C       -3.58426880       6.37587670      16.85151692       10       0.00201074      -0.00071712      -0.03967808
C       -2.37197915       7.07222424      16.85990550       10      -0.00020619      -0.00098486      -0.01381580
C       -4.79514979       8.46891687      16.84962453       10       0.00255628      -0.00273229      -0.01512709
C       -3.58354661       9.16858929      16.86091419       10      -0.00124777      -0.00416247      -0.03471256
C        2.47764755       0.07089365      16.86193921       10       0.00013515      -0.00609256      -0.02777922
C        3.68820530       0.77119563      16.86091410       10       0.00099504       0.00237079      -0.03526101
C        1.26899415       2.16827103      16.85151768       10      -0.00345285      -0.00292211      -0.01375827
C        2.47735596       2.87032334      16.84245755       10       0.00168225      -0.00102876      -0.03925247
C        0.05175543       4.26955490      16.80865766       10      -0.00117514      -0.00253682       0.14841413
C        1.26274077       4.96857304      16.82032761       10       0.00191090      -0.00242639      -0.09126692
C       -1.15974927       6.37556121      16.85151692       10      -0.00076132      -0.00289483      -0.03142426
C        0.05255049       7.06958914      16.84245765       10      -0.00103051       0.00190291      -0.03647838
C       -2.37193261       8.47012778      16.86193942       10       0.00176912      -0.00517647      -0.02204649
C       -1.15998864       9.16780423      16.86091419       10       0.00068616       0.00379881      -0.04498367
C        4.89839475       0.07017710      16.86193921       10      -0.00109709      -0.00391909      -0.03163861
C        6.10929756       0.76912278      16.85990570       10      -0.00075613       0.00458627       0.00684766
C        3.68826179       2.17039198      16.84962440       10      -0.00409012      -0.00171772      -0.01804823
C        4.89928352       2.87007972      16.84245755       10      -0.00250892       0.00249095      -0.02885939
C        2.47646079       4.26968277      16.82857405       10      -0.00557975       0.00057093      -0.05180882
C        3.68864405       4.96912432      16.82578619       10       0.00031744      -0.00158519      -0.00348410
C        1.26367543       6.36876313      16.82857395       10      -0.00601762      -0.00160777      -0.03667990
C        2.47597957       7.06802514      16.82578608       10      -0.00182345      -0.00120804      -0.02682214
C        0.05159920       8.46783875      16.84962453       10      -0.00265080      -0.00356146      -0.00978667
C        1.26314896       9.16606986      16.84245740       10      -0.00168212       0.00404454      -0.04077392
C        7.31852610       0.06692334      16.85151747       10       0.00225210      -0.00015071      -0.00026925
C        8.53223813       0.76926897      16.83478535       10       0.00061752       0.00345452       0.01030737
C        6.10716175       2.16769352      16.85151768       10       0.00106765       0.00250492      -0.02118039
C        7.32313486       2.86712439      16.83478554       10      -0.00345944       0.00213114       0.03115653
C        4.90061548       4.26945685      16.82857405       10      -0.00145912       0.00350275      -0.04817993
C        6.11439963       4.96850789      16.82032761       10      -0.00389659       0.00015473      -0.06696038
C        3.68852962       6.36859568      16.82270819       10      -0.00582881       0.00221277      -0.04913126
C        4.90090326       7.06849558      16.82578608       10      -0.00213729      -0.00261265      -0.02038543
C        2.47575430       8.46751222      16.82857378       10      -0.00198455      -0.00156380      -0.03370143
C        3.68811642       9.16873197      16.82032720       10       0.00015320       0.00141129      -0.06710385
C        9.74802806       0.07054893      16.80865761       10       0.00337833       0.00253002       0.13424874
C       10.96364308       0.76937179      16.83478535       10       0.00088514       0.00125171       0.00764801
C        8.51586741       2.15714787      16.82714680       10       0.00328081       0.00636495       0.24012636
C        9.74645884       2.86683507      16.58278754       10       0.00109224       0.00181870      -2.15038047
C        7.32493356       4.26923940      16.80865766       10       0.00388419       0.00342373       0.12806822
C        8.53752366       4.97308857      16.83478298       10       0.00046415       0.00117356       0.04276241
C        6.11303378       6.36921962      16.82857395       10      -0.00189519       0.00027497      -0.05864821
C        7.32392466       7.07062145      16.84245765       10      -0.00374858      -0.00313448      -0.03317601
C        4.90082384       8.46808247      16.82857378       10      -0.00131279      -0.00042797      -0.03867777
C        6.11329373       9.16706975      16.84245740       10      -0.00131047      -0.00390975      -0.03207800
O        9.79154983       2.96052328      15.00912972       11      -0.00401662       0.00385968       0.00189035
H        9.54215895       2.12124496      14.57589240       12      -0.00051039      -0.00469492      -0.00108289
