132
Lattice="12.12 0.0 0.0 -6.06 10.496227893867395 0.0 0.0 0.0 40.0" Properties=species:S:1:pos:R:3:tags:I:1:forces:R:3 energy=-1210.7675095501493 stress="0.0028883516302805144 2.5185453471384767e-06 -8.444924789263589e-07 2.5185453471384767e-06 0.0028790520409197086 -1.293590621554581e-06 -8.444924789263589e-07 -1.293590621554581e-06 0.00246469174866513" pbc="T T F"
C        0.00019956       0.00303330      10.00413034        2      -0.00004225      -0.00021726       0.00319584
Ti       0.00054033       1.75381641       8.71748934        0       0.00046639      -0.00042848       0.00173304
Ti       1.51547944       0.87867517      11.29961961        0      -0.00038200       0.00074396      -0.00447579
O        0.00109044       1.74816845      12.23008024        3       0.00079705      -0.00059447       0.08314935
O        1.51286225       0.87990328       7.77751576        1       0.00015300      -0.00034577       0.00035797
C       -1.51588570       2.62920237      10.01463978        2       0.00103559      -0.00021925      -0.00068055
Ti      -1.51515739       4.37786713       8.72211631        0      -0.00021046       0.00072219      -0.00010621
Ti      -0.00299212       3.50125709      11.31277979        0      -0.00032875       0.00276347      -0.00179308
O       -1.51057137       4.38723510      12.23008024        3      -0.00170576      -0.00313755      -0.07762908
O       -0.00248992       3.50266145       7.78161169        1      -0.00002874       0.00093724      -0.00028681
C       -3.03030678       5.25236492      10.01054945        2      -0.00072013       0.00111194       0.00121115
Ti      -3.03002755       7.00235172       8.71701944        0       0.00129523      -0.00081397       0.00338541
Ti      -1.51462243       6.12604411      11.30462853        0       0.00028553      -0.00298708      -0.00046522
O       -3.03121671       7.00405152      12.23008024        3      -0.00042528       0.00027823       0.09170387
O       -1.51589616       6.12441674       7.77986134        1       0.00012985       0.00099645       0.00179622
C       -4.54513272       7.87668524      10.00386660        2      -0.00069755       0.00000806       0.00341305
Ti      -4.54510130       9.62517732       8.71493858        0      -0.00026328       0.00171228       0.00071367
Ti      -3.03078711       8.75136447      11.29809890        0       0.00214370       0.00026497      -0.00353887
O       -4.54598330       9.62532216      12.23008024        3       0.00123630       0.00085832       0.10000630
O       -3.03039162       8.74978021       7.77593766        1      -0.00103284      -0.00090507      -0.00170922
C        3.03006820       0.00346206      10.00302168        2       0.00014291      -0.00065000       0.00030308
Ti       3.03000827       1.75332008       8.71543901        0      -0.00170414       0.00039716      -0.00012664
Ti       4.54334991       0.87868253      11.29810244        0       0.00112540      -0.00105387      -0.00361957
O        3.02980270       1.75283106      12.23008024        3      -0.00013750      -0.00156077       0.09682182
O        4.54549771       0.87976384       7.77646630        1      -0.00007118       0.00027408      -0.00192263
C        1.51439429       2.62769227      10.00690140        2      -0.00008676       0.00012477       0.00274839
Ti       1.51408524       4.37715329       8.71851074        0       0.00085353      -0.00020266       0.00022973
Ti       3.02898402       3.50232115      11.29832027        0       0.00120897       0.00046357      -0.00106281
O        1.51757461       4.37892487      12.23008024        3       0.00020956      -0.00021158       0.10123142
O        3.02899975       3.50301678       7.77797482        1      -0.00101747       0.00111213      -0.00003744
C       -0.00006186       5.25265445      10.00807940        2      -0.00029744      -0.00087008       0.00229569
Ti      -0.00059834       7.00168290       8.71681647        0      -0.00096612      -0.00056614       0.00095617
Ti       1.51498495       6.12703489      11.29905716        0       0.00045954      -0.00088998      -0.00212066
O        0.00195903       7.00490173      12.23008024        3      -0.00007371      -0.00115031       0.08485884
O        1.51390903       6.12612405       7.77812331        1       0.00010196      -0.00127820      -0.00075005
C       -1.51547672       7.87825364      10.00365912        2      -0.00009700      -0.00041842       0.00203900
Ti      -1.51536934       9.62536313       8.71460667        0       0.00086592      -0.00023992      -0.00185571
Ti      -0.00057898       8.75122612      11.29841358        0      -0.00106744       0.00043989      -0.00174284
O       -1.51571909       9.62530023      12.23008024        3      -0.00036451       0.00023073       0.07810993
O        0.00027842       8.75026831       7.77639808        1      -0.00060461      -0.00008010      -0.00130059
C        6.05864631       0.00328652      10.00331806        2       0.00144980       0.00046930       0.00240973
Ti       6.05939838       1.75307059       8.71598666        0       0.00024487      -0.00082756       0.00266005
Ti       7.57077490       0.87539395      11.29147552        0       0.00388783       0.00251655       0.00126164
O        6.05776706       1.75197803      12.23008024        3       0.00000138      -0.00009406       0.07710462
O        7.57686869       0.88081212       7.77871689        1      -0.00093001      -0.00062369       0.00177130
C        4.54416146       2.62723234      10.00442353        2      -0.00068377       0.00080163       0.00228938
Ti       4.54459080       4.37708227       8.71633930        0       0.00003784       0.00004177       0.00122851
Ti       6.06012206       3.50137582      11.30225681        0      -0.00263302      -0.00037106      -0.00098567
O        4.54294221       4.37756721      12.23008024        3       0.00070347       0.00128201       0.08439633
O        6.06157359       3.50272815       7.77926389        1       0.00144527       0.00127588       0.00044288
C        3.02945156       5.25185280      10.00483168        2       0.00018643      -0.00067844       0.00080465
Ti       3.02932519       7.00113134       8.71552282        0       0.00137751      -0.00130605       0.00015955
Ti       4.54428478       6.12618626      11.29929466        0      -0.00220163       0.00023890      -0.00322530
O        3.02988950       7.00156962      12.23008024        3       0.00063370       0.00010907       0.08058747
O        4.54468200       6.12625881       7.77731733        1       0.00147869      -0.00013213      -0.00070851
C        1.51444607       7.87625204      10.00411090        2       0.00050452      -0.00044622       0.00040032
Ti       1.51465431       9.62550310       8.71502147        0      -0.00200394       0.00111719      -0.00025968
Ti       3.03029520       8.75090266      11.29968740        0      -0.00008527      -0.00158150      -0.00325923
O        1.51525362       9.62416316      12.23008024        3       0.00109691       0.00046301       0.08153271
O        3.02954685       8.75126869       7.77692218        1       0.00149727      -0.00009748      -0.00248480
C        9.08970376       0.00324885      10.00497119        2       0.00040694       0.00084028       0.00428493
Ti       9.08948482       1.75416343       8.72193146        0      -0.00071618      -0.00019199      -0.00104639
Ti      10.61058182       0.87399362      11.28894015        0      -0.00329514       0.00225711      -0.00065533
O        9.08874218       1.74486270      12.23008024        3       0.00374413       0.00422289       0.30287108
O       10.60375435       0.88106370       7.77942639        1      -0.00076370      -0.00026598      -0.00025628
C        7.57623992       2.62855313      10.01054254        2      -0.00087582      -0.00011054       0.00289872
Ti       7.57487855       4.37734781       8.71895897        0       0.00001366       0.00015558      -0.00157106
Ti       9.09064786       3.50930760      11.30846440        0       0.00251271      -0.00189185      -0.00676374
O        7.56891309       4.37904354      12.23008024        3      -0.00157229       0.00160026       0.06868416
O        9.09071132       3.50238457       7.78234596        1       0.00000820      -0.00010357      -0.00217767
C        6.05969810       5.25193148      10.00567554        2       0.00097766      -0.00010551       0.00251826
Ti       6.05979938       7.00118766       8.71586472        0      -0.00045998      -0.00082886       0.00119178
Ti       7.57398765       6.12642836      11.30189503        0      -0.00020669       0.00213764      -0.00259164
O        6.05855962       7.00169545      12.23008024        3      -0.00111524      -0.00092495       0.09598731
O        7.57564486       6.12532869       7.77892769        1       0.00047482      -0.00194409       0.00028812
C        4.54480040       7.87584585      10.00401620        2       0.00089361       0.00022424       0.00095991
Ti       4.54444007       9.62544776       8.71360422        0       0.00126865      -0.00045872       0.00025407
Ti       6.05950899       8.74956591      11.29864845        0       0.00136798      -0.00146428      -0.00239989
O        4.54474719       9.62166067      12.23008024        3       0.00075555      -0.00079014       0.07547607
O        6.05939722       8.75067115       7.77640677        1      -0.00137882       0.00023411      -0.00100630
C        0.05885601       0.06831084      16.56730694       10      -0.00276383      -0.00434916      -0.00653449
C        1.26777112       0.77044893      16.57569517       10       0.00420487      -0.00086871       0.00259469
C       -1.13895383       2.15763917      16.54293627       10      -0.00060646      -0.00402540       0.30876212
C        0.05487485       2.86830655      16.55057501       10      -0.00006625      -0.00341068       0.03084712
C       -2.37216390       4.29551906      16.54293072       10       0.00077858       0.00077725       0.51100284
C       -1.16078967       4.97364774      16.55057245       10      -0.00170345       0.00251255       0.01811378
C       -3.58348192       6.37740358      16.56730639       10       0.00071781      -0.00256084      -0.03131786
C       -2.37123951       7.07329537      16.57569497       10      -0.00158619       0.00190619       0.00327209
C       -4.79437961       8.46960816      16.56541400       10      -0.00380913      -0.00188587      -0.01277751
C       -3.58279070       9.16929996      16.57670366       10       0.00159844       0.00066730      -0.03747684
C        2.47879373       0.07150469      16.57772868       10       0.00103297       0.00112505      -0.02419922
C        3.68908118       0.77214368      16.57670357       10      -0.00110960      -0.00256006      -0.03252602
C        1.27021120       2.16879693      16.56730715       10      -0.00050616      -0.00156051      -0.01535919
C        2.47802218       2.87122103      16.55824702       10       0.00268061      -0.00198785      -0.03359453
C        0.05291180       4.27053809      16.52444713       10      -0.00308127      -0.00025928       0.15652244
C        1.26351706       4.96953814      16.53611708       10       0.00109920       0.00114391      -0.07636840
C       -1.15923251       6.37628091      16.56730639       10      -0.00076657       0.00004961      -0.03020112
C        0.05297993       7.07040718      16.55824712       10       0.00140742       0.00578815      -0.03700407
C       -2.37079181       8.47103800      16.57772889       10      -0.00212552       0.00042090      -0.02331624
C       -1.15907439       9.16908650      16.57670366       10      -0.00181414      -0.00274868      -0.02739128
C        4.89945853       0.07126143      16.57772868       10       0.00036836       0.00179172      -0.02156494
C        6.11027887       0.77072314      16.57569517       10      -0.00032659      -0.00251774      -0.00096522
C        3.68886501       2.17140140      16.56541387       10       0.00191230      -0.00304596      -0.01781207
C        4.89987740       2.87139552      16.55824702       10       0.00108915      -0.00032744      -0.01966293
C        2.47675986       4.27062158      16.54436352       10       0.00001354       0.00011738      -0.03622733
C        3.68874587       4.97029684      16.54157566       10       0.00259564       0.00066780      -0.01071120
C        1.26402316       6.36971537      16.54436342       10       0.00127606       0.00028579      -0.03216072
C        2.47620702       7.06927241      16.54157555       10       0.00161784       0.00381241      -0.00891707
C        0.05243491       8.46883776      16.56541400       10       0.00061197       0.00383113      -0.00319800
C        1.26394042       9.16761379      16.55824687       10       0.00103952      -0.00077123      -0.02489747
C        7.31940834       0.06838380      16.56730694       10      -0.00045406       0.00259644      -0.00246052
C        8.53319015       0.77107798      16.55057482       10       0.00278174      -0.00191037       0.02526590
C        6.10793987       2.16920097      16.56730715       10      -0.00038941      -0.00424325      -0.01617737
C        7.32407571       2.86869834      16.55057501       10       0.00139021       0.00057059       0.03392280
C        4.90084779       4.27080890      16.54436352       10      -0.00036952      -0.00157129      -0.03694498
C        6.11470174       4.96976471      16.53611708       10       0.00163350      -0.00006788      -0.05307756
C        3.68843375       6.36983493      16.53849766       10       0.00046958       0.00114224      -0.04136646
C        4.90086346       7.06964333      16.54157555       10       0.00197199       0.00218731      -0.00806056
C        2.47635457       8.46885388      16.54436325       10       0.00007421       0.00106902      -0.03156252
C        3.68890298       9.17028985      16.53611667       10       0.00018899      -0.00306998      -0.07067796
C        9.74885000       0.07205656      16.52444708       10      -0.00365941      -0.00371785       0.13432604
C       10.96477160       0.77031278      16.55057482       10       0.00195795      -0.00130064       0.01273423
C        8.51683176       2.15877567      16.54293627       10       0.00094576      -0.00164702       0.25154671
C        9.74741773       2.86798136      16.29857701       10      -0.00274971       0.00332389      -2.11989825
C        7.32577969       4.27102639      16.52444713       10      -0.00024011      -0.00123299       0.12931620
C        8.53862886       4.97461990      16.55057245       10      -0.00449613       0.00282270       0.04725927
C        6.11315199       6.37046678      16.54436342       10      -0.00070982       0.00114660      -0.04398654
C        7.32435377       7.07142074      16.55824712       10      -0.00278582       0.00445169      -0.02639548
C        4.90129038       8.46920112      16.54436325       10      -0.00453632      -0.00152247      -0.03454811
C        6.11394673       9.16775859      16.55824687       10       0.00151496       0.00272734      -0.03373649
O        9.82641018       2.96270360      14.74563472       11      -0.00700499       0.00316455      -0.00217137
H        9.48651935       2.17679977      14.26885390       12       0.00245386       0.00369638       0.00165339
