130
Lattice="12.12 0.0 0.0 -6.06 10.496227893867395 0.0 0.0 0.0 40.0" Properties=species:S:1:pos:R:3:tags:I:1:forces:R:3 energy=-1200.7847991844262 stress="0.0028306049801893763 6.797770566566128e-08 -3.019369212612378e-08 6.797770566566128e-08 0.002830472774678628 2.6582595653197924e-07 -3.019369212612378e-08 2.6582595653197924e-07 0.002144930467742609" pbc="T T F"
C        0.00002582       0.00001976      10.00163552        2      -0.00010998      -0.00002907       0.00222090
Ti       0.00000816       1.74941645       8.68999462        0       0.00002728       0.00002919       0.00006290
Ti       1.51505222       0.87470531      11.30447170        0       0.00025756       0.00010942      -0.00211495
O       -0.00030247       1.75130929      12.23159545        3       0.00021056       0.00006451       0.02716359
O        1.51489143       0.87463925       7.76792414        1      -0.00042063      -0.00027421      -0.00126910
C       -1.51497203       2.62404680      10.00060110        2      -0.00014062       0.00028574       0.00137506
Ti      -1.51499375       4.37343294       8.68967143        0      -0.00001216      -0.00011755      -0.00174434
Ti      -0.00009074       3.49936808      11.30425560        0       0.00011794       0.00036521      -0.00287895
O       -1.51543957       4.37431501      12.23159545        3      -0.00012163       0.00007081       0.00475057
O        0.00006113       3.49851976       7.76788154        1      -0.00000724      -0.00049080      -0.00215502
C       -3.02982700       5.24822263      10.00009888        2      -0.00018965      -0.00011114       0.00054984
Ti      -3.02999149       6.99748728       8.68966497        0      -0.00011517       0.00005480      -0.00172971
Ti      -1.51498495       6.12281498      11.30353190        0       0.00013766      -0.00007052      -0.00388310
O       -3.02944652       6.99652135      12.23159545        3      -0.00012343      -0.00010426      -0.00279171
O       -1.51501443       6.12278822       7.76767412        1      -0.00008879      -0.00003894      -0.00311146
C       -4.54495429       7.87224216      10.00057445        2       0.00013638      -0.00031007       0.00126501
Ti      -4.54495033       9.62153997       8.68996405        0       0.00002846       0.00001754       0.00003124
Ti      -3.02945424       8.74646554      11.30421970        0       0.00038753      -0.00023425      -0.00296212
O       -4.54342660       9.62024834      12.23159545        3      -0.00007620      -0.00026037       0.03219259
O       -3.03015590       8.74702096       7.76786241        1      -0.00034197       0.00034658      -0.00208801
C        3.02996768      -0.00001723      10.00083380        2       0.00037720       0.00003626       0.00142554
Ti       3.02991785       1.74932794       8.68992169        0      -0.00043180      -0.00023009      -0.00086019
Ti       4.54529957       0.87489322      11.30352634        0       0.00014082       0.00034426      -0.00287477
O        3.03082333       1.74992076      12.23159545        3       0.00030882       0.00040547       0.02318416
O        4.54485679       0.87470359       7.76780054        1      -0.00034744       0.00003581      -0.00249873
C        1.51497534       2.62401087      10.00085470        2       0.00011560       0.00032319       0.00121028
Ti       1.51499760       4.37343380       8.68980489        0       0.00006708      -0.00015070      -0.00164503
Ti       3.03028145       3.49892570      11.30347123        0       0.00021943       0.00038090      -0.00275538
O        1.51505965       4.37417234      12.23159545        3       0.00052988       0.00043429       0.00658996
O        3.02992212       3.49861705       7.76780304        1      -0.00013081      -0.00039013      -0.00261673
C       -0.00000580       5.24818157      10.00025748        2       0.00004925       0.00005051       0.00089282
Ti      -0.00000399       6.99748259       8.68969753        0       0.00000396       0.00002988      -0.00259822
Ti       1.51486912       6.12283320      11.30354872        0      -0.00012145      -0.00007645      -0.00335617
O       -0.00017622       6.99737021      12.23159545        3      -0.00007332       0.00003375      -0.04939485
O        1.51504567       6.12273948       7.76773018        1       0.00008662      -0.00003839      -0.00296641
C       -1.51493503       7.87217708      10.00030047        2       0.00013601      -0.00010806       0.00088983
Ti      -1.51498948       9.62155156       8.68979671        0      -0.00008992       0.00016965      -0.00142654
Ti      -0.00002348       8.74674600      11.30351791        0      -0.00001055      -0.00018556      -0.00350755
O       -1.51426955       9.62136473      12.23159545        3       0.00022302       0.00016363       0.00033691
O       -0.00002345       8.74692834       7.76769694        1       0.00001032       0.00021348      -0.00283712
C        6.06001015      -0.00013433      10.00032300        2      -0.00005084       0.00034196       0.00087645
Ti       6.05999094       1.74932952       8.68960492        0       0.00000862      -0.00004548      -0.00229696
Ti       7.57493195       0.87496008      11.30340155        0      -0.00030082       0.00015729      -0.00315321
O        6.06033659       1.74954695      12.23159545        3      -0.00014250       0.00057819      -0.01848854
O        7.57508601       0.87468092       7.76773690        1       0.00030878      -0.00001473      -0.00265352
C        4.54498887       2.62405087      10.00047509        2       0.00017494       0.00016936       0.00078589
Ti       4.54495022       4.37343955       8.68958681        0      -0.00006564       0.00004833      -0.00247026
Ti       6.06016923       3.49891501      11.30256047        0      -0.00022471       0.00033595      -0.00345512
O        4.54518573       4.37379910      12.23159545        3       0.00009381       0.00024205      -0.02141925
O        6.05996289       3.49872419       7.76760492        1      -0.00003697      -0.00004924      -0.00343600
C        3.02983651       5.24819988      10.00031488        2       0.00020897      -0.00009771       0.00052500
Ti       3.02998436       6.99747232       8.68975769        0       0.00011840       0.00001323      -0.00164579
Ti       4.54516443       6.12262134      11.30327199        0      -0.00011016      -0.00005135      -0.00315308
O        3.02946335       6.99663692      12.23159545        3       0.00004520      -0.00035227      -0.00793071
O        4.54501697       6.12287919       7.76773409        1       0.00013879       0.00030190      -0.00283781
C        1.51490322       7.87215518      10.00037692        2      -0.00008341      -0.00008411       0.00101640
Ti       1.51497410       9.62154813       8.68974753        0       0.00006887       0.00015028      -0.00143760
Ti       3.02937555       8.74650944      11.30419850        0      -0.00045345      -0.00043962      -0.00289312
O        1.51409667       9.62157238      12.23159545        3      -0.00014961       0.00010244      -0.00684852
O        3.03016262       8.74695293       7.76786611        1       0.00025587       0.00027700      -0.00206846
C        9.09001224      -0.00007669      10.00066407        2      -0.00035162       0.00007322       0.00141398
Ti       9.09008972       1.74933572       8.68974452        0       0.00041844      -0.00022520      -0.00107899
Ti      10.60488468       0.87468003      11.30424719        0      -0.00000210      -0.00000336      -0.00212677
O        9.08948460       1.74996396      12.23159545        3      -0.00046900       0.00027032       0.01465778
O       10.60518246       0.87460176       7.76787100        1       0.00051089      -0.00026472      -0.00136526
C        7.57508299       2.62403379      10.00034995        2      -0.00014667       0.00022158       0.00056761
Ti       7.57505338       4.37346062       8.68948269        0       0.00009939       0.00005097      -0.00262085
Ti       9.08975168       3.49889627      11.30319287        0      -0.00025734       0.00026143      -0.00326993
O        7.57524815       4.37374825      12.23159545        3      -0.00040077      -0.00007264      -0.02954736
O        9.09006245       3.49863083       7.76765081        1       0.00023918      -0.00035323      -0.00290918
C        6.06000972       5.24821225      10.00031390        2       0.00001405      -0.00005673       0.00050213
Ti       6.06000219       6.99757348       8.68972640        0      -0.00001322       0.00050245      -0.00127691
Ti       7.57493352       6.12258607      11.30311193        0      -0.00012683      -0.00010531      -0.00336242
O        6.06012023       6.99684840      12.23159545        3      -0.00006527      -0.00024834       0.00680950
O        7.57493884       6.12290791       7.76764530        1      -0.00015402       0.00041060      -0.00297577
C        4.54491895       7.87224937      10.00063444        2      -0.00023698      -0.00025090       0.00118278
Ti       4.54495931       9.62152544       8.68990862        0      -0.00005339      -0.00000295      -0.00000709
Ti       6.05994633       8.74678328      11.30417680        0       0.00001274      -0.00010017      -0.00230179
O        4.54327565       9.62050231      12.23159545        3       0.00006408      -0.00016102       0.03314937
O        6.06001011       8.74706732       7.76788377        1       0.00004469       0.00069799      -0.00146984
C        0.04481813       0.06757552      16.87896387       10       0.00539381       0.00115014       0.00234275
C        1.25671635       0.76719781      16.87896387       10       0.00277120       0.00178022      -0.00545148
C       -1.16669969       2.16673035      16.87896387       10       0.00013902      -0.00019923       0.01172520
C        0.04507597       2.86625037      16.87896387       10      -0.00207334       0.00096599       0.00038625
C       -2.37884332       4.26593873      16.87896387       10       0.00154220      -0.00157275       0.00139970
C       -1.16713863       4.96540340      16.87896387       10       0.00074005       0.00102050      -0.00061276
C       -3.59113602       6.36550335      16.87896387       10       0.00328066      -0.00123643       0.00098619
C       -2.37943635       7.06508979      16.87896387       10       0.00144439      -0.00121099      -0.00119311
C       -4.80285814       8.46478796      16.87896387       10       0.00070962      -0.00125254       0.01262875
C       -3.59117794       9.16434686      16.87896387       10      -0.00159385      -0.00177944       0.00353004
C        2.46857554       0.06733652      16.87896387       10       0.00389118       0.00234655       0.01711271
C        3.68058229       0.76733494      16.87896387       10       0.00363587       0.00085779       0.01089549
C        1.25684323       2.16659752      16.87896387       10      -0.00091021       0.00224977       0.01419338
C        2.46905398       2.86632109      16.87896387       10      -0.00086657      -0.00051084       0.01074794
C        0.04501800       4.26592850      16.87896387       10       0.00010223       0.00096893       0.01019872
C        1.25709375       4.96543096      16.87896387       10       0.00025588      -0.00007198      -0.00061272
C       -1.16714850       6.36518513      16.87896387       10       0.00117612       0.00194908      -0.01585163
C        0.04488270       7.06498766      16.87896387       10       0.00053968      -0.00132831      -0.00402702
C       -2.37896434       8.46455957      16.87896387       10      -0.00041349      -0.00065207       0.00846924
C       -1.16718590       9.16458360      16.87896387       10      -0.00057894      -0.00174147      -0.00350404
C        4.89264584       0.06745253      16.87896387       10       0.00217722       0.00094224       0.00431708
C        6.10482663       0.76723144      16.87896387       10       0.00183462       0.00162495       0.00406091
C        3.68083409       2.16659386      16.87896387       10      -0.00132343      -0.00033645       0.01089739
C        4.89314284       2.86653215      16.87896387       10      -0.00093529      -0.00092718       0.00293295
C        2.46883357       4.26590353      16.87896387       10      -0.00010808      -0.00067540       0.00450426
C        3.68100317       4.96564152      16.87896387       10      -0.00000808       0.00078828       0.00131583
C        1.25697266       6.36523386      16.87896387       10       0.00101014       0.00093249      -0.01708232
C        2.46932647       7.06502118      16.87896387       10       0.00152240       0.00038892      -0.00444384
C        0.04512685       8.46461745      16.87896387       10      -0.00183694      -0.00179551      -0.01953814
C        1.25740969       9.16457911      16.87896387       10      -0.00215459      -0.00107174      -0.00663381
C        7.31710183       0.06743934      16.87896387       10       0.00060429       0.00161707       0.00207231
C        8.52910105       0.76734809      16.87896387       10       0.00040433       0.00061974       0.01096805
C        6.10503005       2.16638341      16.87896387       10      -0.00057674       0.00115551      -0.01835100
C        7.31701494       2.86659714      16.87896387       10      -0.00132508      -0.00206023      -0.00305493
C        4.89273701       4.26608892      16.87896387       10      -0.00039557       0.00006477      -0.02085618
C        6.10499730       4.96573672      16.87896387       10      -0.00014894      -0.00115907      -0.00769205
C        3.68098143       6.36541208      16.87896387       10       0.00105861       0.00059133       0.00207577
C        4.89306772       7.06518915      16.87896387       10       0.00116460      -0.00237099       0.01074688
C        2.46926817       8.46455142      16.87896387       10      -0.00351688      -0.00087455       0.00605863
C        3.68148706       9.16446488      16.87896387       10      -0.00374092      -0.00248494       0.00706076
C        9.74114051       0.06742282      16.87896387       10       0.00151486       0.00160004       0.01711738
C       10.95301334       0.76732838      16.87896387       10      -0.00070865       0.00101237      -0.00123142
C        8.52927417       2.16655417      16.87896387       10      -0.00159727       0.00117557       0.00580082
C        9.74108606       2.86636233      16.87896387       10      -0.00337246       0.00103048       0.01058012
C        7.31725613       4.26616376      16.87896387       10      -0.00078180      -0.00118216      -0.02138825
C        8.52900293       4.96572140      16.87896387       10      -0.00149609       0.00133283      -0.00262212
C        6.10483617       6.36559778      16.87896387       10       0.00214694      -0.00121669       0.00146464
C        7.31679605       7.06506042      16.87896387       10      -0.00017633      -0.00007670       0.01085609
C        4.89317863       8.46486272      16.87896387       10      -0.00263492      -0.00197229       0.01519887
C        6.10525539       9.16437203      16.87896387       10      -0.00533448      -0.00137736       0.00243993
