131
Lattice="12.12 0.0 0.0 -6.06 10.496227893867395 0.0 0.0 0.0 40.0" Properties=species:S:1:pos:R:3:tags:I:1:forces:R:3 energy=-1205.2795044725005 stress="0.0028324701839227695 -3.0948426266298108e-06 2.1980273156857274e-06 -3.0948426266298108e-06 0.0028291093290028495 1.273228767053356e-06 2.1980273156857274e-06 1.273228767053356e-06 0.002391790873682676" pbc="T T F"
C       -0.00118244       0.00077464      10.00141693        2      -0.00012553       0.00038947      -0.00059953
Ti       0.00106733       1.74905896       8.69326683        0       0.00018779       0.00007006       0.00163932
Ti       1.51702686       0.87725658      11.31309399        0       0.00065050      -0.00110197       0.00260742
O       -0.00020154       1.74708797      12.23159545        3      -0.00052595       0.00059442       0.01182605
O        1.51770720       0.87169094       7.77669025        1       0.00076003      -0.00028266       0.00044089
C       -1.51425380       2.62277878      10.00205171        2       0.00044981      -0.00029303      -0.00103450
Ti      -1.51471144       4.37614606       8.69776745        0       0.00033026      -0.00019158       0.00137875
Ti      -0.00130690       3.49673800      11.31277446        0       0.00175273       0.00072602      -0.00127359
O       -1.51363661       4.37272252      12.23159545        3       0.00062938      -0.00183405      -0.01940755
O       -0.00075921       3.49925635       7.77124223        1       0.00019432       0.00026129      -0.00090972
C       -3.02977464       5.24580408      10.00486465        2       0.00017122      -0.00068900       0.00010549
Ti      -3.03183662       6.99488419       8.71092225        0       0.00080440       0.00014100       0.00264423
Ti      -1.51033651       6.12634309      11.31992698        0      -0.00153332       0.00156351       0.00309441
O       -3.03504699       6.98081016      12.23159545        3       0.00039318      -0.00128722      -0.14019783
O       -1.51680867       6.12756360       7.77947259        1      -0.00004083       0.00020441       0.00121906
C       -4.54584729       7.87162029      10.01577231        2       0.00008132       0.00023209       0.00152861
Ti      -4.54593434       9.62186583       8.70638436        0       0.00000149       0.00058827       0.00256840
Ti      -3.01733096       8.74253783      11.38899236        0       0.00238542      -0.00053675      -0.00026587
O       -4.55479597       9.62769603      12.23159545        3      -0.00229569       0.00169359      -0.00785403
O       -3.02837923       8.74591272       7.79290267        1      -0.00001162       0.00020665       0.00228865
C        3.03017510       0.00152002      10.01570802        2       0.00005210       0.00025927       0.00093873
Ti       3.02997216       1.74845249       8.70361596        0       0.00056340       0.00006743       0.00243982
Ti       4.54386434       0.88237482      11.31235796        0       0.00090663      -0.00373389       0.00514042
O        3.02834018       1.75398899      12.23159545        3       0.00045540       0.00032862       0.00832504
O        4.54382295       0.87202912       7.77830290        1       0.00030571      -0.00079097       0.00128240
C        1.51303160       2.62612468      10.00246636        2       0.00060854       0.00051668       0.00025857
Ti       1.51410651       4.37334089       8.69594959        0       0.00056893       0.00067870       0.00178167
Ti       3.02800447       3.49926525      11.31599887        0       0.00063762       0.00000502      -0.00186980
O        1.51331408       4.37125771      12.23159545        3       0.00145836       0.00025726      -0.02258398
O        3.03011962       3.49627288       7.77326522        1      -0.00001400      -0.00047105      -0.00083181
C        0.00189310       5.24562099      10.00168914        2       0.00077594      -0.00052586       0.00033377
Ti       0.00084544       6.99724016       8.70183920        0      -0.00056529       0.00082927       0.00295999
Ti       1.51784884       6.12115900      11.31206759        0      -0.00097664       0.00081418       0.00032653
O        0.01157909       6.99175550      12.23159545        3       0.00091208      -0.00006195      -0.02505200
O        1.51220192       6.12464922       7.77323001        1      -0.00078888       0.00081466       0.00012844
C       -1.51427155       7.87252650      10.02618979        2       0.00029781       0.00003826       0.00006778
Ti      -1.51328633       9.62463801       8.71036072        0       0.00039582      -0.00002452       0.00243149
Ti      -0.00158889       8.74296328      11.31971564        0      -0.00226672       0.00153853       0.00323983
O       -1.50077087       9.63787508      12.23159545        3       0.00150386       0.00068778      -0.18420420
O       -0.00470487       8.74611044       7.77894875        1       0.00009498       0.00064441       0.00118299
C        6.06282852       0.00189902      10.00325690        2       0.00105336       0.00060293       0.00002874
Ti       6.05975267       1.74888669       8.69846072        0       0.00009820       0.00036665       0.00154151
Ti       7.57640053       0.87399701      11.31328228        0       0.00005093       0.00042843      -0.00150067
O        6.06156769       1.74908406      12.23159545        3       0.00122543       0.00125962      -0.00033510
O        7.57417623       0.87439684       7.77269925        1       0.00013864       0.00033598      -0.00121188
C        4.54591932       2.62855696      10.00349395        2       0.00031613       0.00069927      -0.00081232
Ti       4.54503525       4.37360214       8.69435606        0      -0.00010069      -0.00001911       0.00285594
Ti       6.06077630       3.49819810      11.31919364        0      -0.00107994       0.00111188      -0.00194339
O        4.54349259       4.37382825      12.23159545        3      -0.00057859       0.00053934      -0.00283785
O        6.06078502       3.49886189       7.77316289        1       0.00058104       0.00002269      -0.00090365
C        3.02981397       5.24831875      10.00427137        2      -0.00010697       0.00033325      -0.00083958
Ti       3.02981194       6.99845866       8.69624689        0      -0.00019941      -0.00040322       0.00198370
Ti       4.54337396       6.12410098      11.31707263        0       0.00051457      -0.00004260      -0.00183505
O        3.03082791       7.00001982      12.23159545        3       0.00050768      -0.00075425      -0.01555940
O        4.54759070       6.12441993       7.77389170        1       0.00061511       0.00052103      -0.00080670
C        1.51809315       7.87231999      10.00147260        2       0.00118128       0.00020429       0.00015634
Ti       1.51313351       9.62029236       8.69699348        0       0.00046337       0.00036871       0.00131747
Ti       3.03008209       8.74949049      11.31290841        0       0.00074888      -0.00124829      -0.00138272
O        1.51600497       9.62215278      12.23159545        3       0.00235472       0.00102405      -0.00924059
O        3.02961381       8.74719779       7.77120545        1       0.00014907       0.00016763      -0.00087745
C        9.09151443       0.00045251      10.00189131        2       0.00083411       0.00018767      -0.00091872
Ti       9.09001537       1.74961244       8.69441942        0       0.00092746      -0.00020915       0.00210772
Ti      10.60674121       0.87399227      11.30822766        0       0.00066256       0.00008069      -0.00261783
O        9.09231476       1.74850508      12.23159545        3       0.00090528      -0.00030967      -0.02550742
O       10.60530354       0.87456069       7.77011186        1       0.00055129      -0.00009974      -0.00180875
C        7.57656877       2.62363675      10.00361714        2       0.00030534       0.00012873      -0.00031262
Ti       7.57540807       4.37401650       8.69923147        0       0.00016078       0.00016876       0.00161581
Ti       9.09203879       3.49854831      11.31403366        0       0.00001935       0.00009123      -0.00139739
O        7.57612829       4.37175925      12.23159545        3      -0.00025680      -0.00144970       0.00785903
O        9.08999953       3.50026516       7.77325955        1       0.00013498       0.00015738      -0.00118037
C        6.05694387       5.24525802      10.00466943        2      -0.00013625      -0.00004385      -0.00052555
Ti       6.06108630       6.99822571       8.70524156        0       0.00028034      -0.00017643       0.00217240
Ti       7.56845694       6.12082288      11.31473864        0       0.00330398       0.00101661       0.00468267
O        6.05553448       6.99761967      12.23159545        3       0.00006775      -0.00006210       0.01057929
O        7.57690136       6.12537246       7.77941135        1       0.00097864       0.00075616       0.00134616
C        4.54228352       7.87296605      10.00336496        2       0.00011060      -0.00030606       0.00030930
Ti       4.54587935       9.62094685       8.69366265        0       0.00036604       0.00025532       0.00170013
Ti       6.05830029       8.74485788      11.31353234        0       0.00163259       0.00057628       0.00308594
O        4.54606115       9.62325595      12.23159545        3      -0.00063028       0.00056664      -0.00318772
O        6.06381183       8.74582646       7.77696890        1       0.00100094      -0.00015396       0.00063394
C        0.04069870       0.06999317      16.53816787       10      -0.00346400      -0.00113377       0.02250208
C        1.24830231       0.77041987      16.52287582       10       0.00389988      -0.00004588       0.02613828
C       -1.16938275       2.16704032      16.54348857       10      -0.00165834       0.00029148       0.01593641
C        0.04217895       2.86680049      16.52577814       10      -0.00097500      -0.00140555       0.01417656
C       -2.37981242       4.26467287      16.53816787       10      -0.00203906      -0.00177057       0.02042441
C       -1.17039194       4.96004419      16.52287582       10      -0.00084897       0.00016694       0.01712877
C       -3.58712291       6.36811329      16.47505712       10      -0.00088408      -0.00068685       0.07376190
C       -2.38195027       7.04852902      16.43323490       10      -0.00045987       0.00191475      -0.22426857
C       -4.80186256       8.47087102      16.47505712       10      -0.00432127      -0.00095234       0.04636726
C       -3.60974319       9.17502084      16.43323490       10       0.00472406       0.00061974      -0.17767769
C        2.46401016       0.06355948      16.47505712       10       0.00113031      -0.00340342       0.04872132
C        3.67831681       0.76861959      16.44297844       10      -0.00116809      -0.00005266      -0.02157197
C        1.25405088       2.16790642      16.51183285       10      -0.00072618      -0.00156615       0.00903794
C        2.46548880       2.86592743      16.48991844       10      -0.00162604       0.00070227       0.00718870
C        0.04320073       4.26559049      16.51183285       10      -0.00131308      -0.00077065       0.01577286
C        1.25362530       4.96591649      16.48991844       10      -0.00102961      -0.00021854      -0.00263918
C       -1.17478815       6.36750254      16.47505712       10      -0.00222321       0.00058050       0.07903103
C        0.04292878       7.06597826      16.44297844       10      -0.00115081      -0.00123372      -0.05135223
C       -2.38361888       8.46623741      15.98042924       10      -0.00006490       0.00022633       0.21840048
C       -1.15494157       9.17459217      16.43323490       10      -0.00107170      -0.00057027      -0.23669843
C        4.89209341       0.06249135      16.47505712       10      -0.00061079      -0.00070839       0.07472452
C        6.10923611       0.77046833      16.52287582       10      -0.00031150       0.00047768       0.02775043
C        3.67822946       2.16392813      16.47531215       10      -0.00142933       0.00040808      -0.01083830
C        4.89216469       2.86592002      16.48991844       10      -0.00035019       0.00065667       0.01759105
C        2.46637012       4.26700843      16.48723683       10      -0.00118546       0.00060130       0.00174502
C        3.67968287       4.96638761      16.48223606       10      -0.00149801       0.00031934      -0.00657599
C        1.25177212       6.36811579      16.47531215       10      -0.00061268       0.00018519       0.01852090
C        2.46711674       7.06771440      16.48991844       10      -0.00047199       0.00079376      -0.00237742
C        0.03844499       8.47008511      16.47505712       10      -0.00054265      -0.00113867       0.07944898
C        1.25974175       9.16980304      16.52287582       10      -0.00020587       0.00113952       0.01741487
C        7.31726888       0.06866466      16.53816787       10       0.00158609       0.00144411       0.02187153
C        8.52995905       0.76968284      16.54510639       10       0.00145255       0.00194372       0.01873859
C        6.10371888       2.16715006      16.51183285       10       0.00045535       0.00043010       0.01614202
C        7.31636215       2.86668772      16.52577814       10       0.00057414      -0.00044506       0.02461801
C        4.89064210       4.26704198      16.48723683       10      -0.00166661       0.00115971      -0.00361981
C        6.10511701       4.96628444      16.48991844       10      -0.00198585       0.00059340       0.02138550
C        3.67850687       6.36696980      16.48723683       10      -0.00161855      -0.00037598       0.00496937
C        4.89181160       7.06825397      16.48991844       10      -0.00154877      -0.00059013       0.00827847
C        2.46804049       8.46638850      16.51183285       10       0.00039586       0.00081652       0.02069961
C        3.67929197       9.16655025      16.52577814       10       0.00017541       0.00127876       0.00626620
C        9.73949666       0.06931651      16.54348857       10      -0.00229615      -0.00197668       0.01386732
C       10.94832291       0.76976412      16.54510639       10       0.00452634       0.00034931       0.02694525
C        8.52852883       2.16664790      16.54348857       10       0.00011016      -0.00013213       0.00932263
C        9.73931970       2.86409568      16.54510639       10       0.00032359      -0.00219770       0.02090984
C        7.31590617       4.26629851      16.51183285       10      -0.00306171      -0.00096599       0.01699117
C        8.52845447       4.96010949      16.52287582       10      -0.00014629      -0.00273901       0.03454105
C        6.10587384       6.36879614      16.47531215       10      -0.00178653       0.00010709      -0.00867860
C        7.31442345       7.06654058      16.44297844       10      -0.00014972      -0.00188917      -0.02657295
C        4.89046467       8.46669820      16.51183285       10      -0.00205169      -0.00197161       0.00846700
C        6.09785904       9.17003918      16.52287582       10       0.00382014       0.00181720       0.02410175
O       -2.38193487       8.46058488      14.65782345       11      -0.00295536       0.00089799       0.00044437
