130
Lattice="12.12 0.0 0.0 -6.06 10.496227893867395 0.0 0.0 0.0 40.0" Properties=species:S:1:pos:R:3:tags:I:1:forces:R:3 energy=-1199.979327941106 stress="0.0028112912320237852 1.7714453632127124e-08 -6.186405178794728e-08 1.7714453632127124e-08 0.0028112644069121 -9.369713496968598e-08 -6.186405178794728e-08 -9.369713496968598e-08 0.0020404986205822427" pbc="T T F"
C        0.00001330       0.00003764      10.00169399        2       0.00004241      -0.00008483       0.00176685
Ti      -0.00002066       1.74924970      11.31156566        0      -0.00000560      -0.00015584       0.00076164
Ti       1.51506450       0.87471854       8.68966513        0       0.00010305       0.00005503       0.00182723
O        0.00001030       1.74934652       7.76918974        1      -0.00000469      -0.00006249       0.00212386
O        1.51604751       0.87515261      12.23159545        3      -0.00004698       0.00002630       0.11466160
C       -1.51494552       2.62398799      10.00127432        2      -0.00022072       0.00005378       0.00150980
Ti      -1.51516680       4.37325184      11.31152727        0      -0.00003808      -0.00010215       0.00054568
Ti      -0.00000858       3.49873014       8.68977538        0       0.00002332      -0.00003157       0.00204132
O       -1.51489903       4.37346231       7.76919186        1       0.00027966       0.00014406       0.00190509
O       -0.00018668       3.49888676      12.23159545        3       0.00004780      -0.00028599       0.12886194
C       -3.03006906       5.24808088      10.00105911        2      -0.00009616      -0.00008511       0.00131074
Ti      -3.03020455       6.99740409      11.31154811        0      -0.00015391      -0.00006769       0.00054551
Ti      -1.51502218       6.12277970       8.68978226        0       0.00010813       0.00004362       0.00203233
O       -3.02990306       6.99755627       7.76918189        1       0.00029717       0.00016652       0.00191526
O       -1.51608059       6.12208312      12.23159545        3       0.00011555       0.00009660       0.12977949
C       -4.54502935       7.87220577      10.00122513        2      -0.00008233      -0.00014636       0.00146218
Ti      -4.54515358       9.62156158      11.31154335        0      -0.00011188       0.00002676       0.00073080
Ti      -3.03002872       8.74685480       8.68978314        0      -0.00002108       0.00002914       0.00201451
O       -4.54501731       9.62156463       7.76919675        1      -0.00002943       0.00003745       0.00212352
O       -3.03021758       8.74661999      12.23159545        3      -0.00015301      -0.00005515       0.13041304
C        3.02993281      -0.00000438      10.00131629        2       0.00004975       0.00008391       0.00158591
Ti       3.03027182       1.74952298      11.31142801        0       0.00004157       0.00018890       0.00027927
Ti       4.54505390       0.87470399       8.68972765        0       0.00003650      -0.00008454       0.00151424
O        3.02992327       1.74932573       7.76915605        1      -0.00011353      -0.00011879       0.00168910
O        4.54558813       0.87559392      12.23159545        3       0.00001151       0.00005866       0.13818983
C        1.51495534       2.62397622      10.00134316        2       0.00011961       0.00001387       0.00149338
Ti       1.51513992       4.37318682      11.31155625        0       0.00000773      -0.00017269       0.00061918
Ti       3.03005640       3.49877791       8.68971975        0      -0.00004475       0.00009188       0.00150248
O        1.51492908       4.37346263       7.76921119        1      -0.00022849       0.00016034       0.00204013
O        3.03111408       3.49890553      12.23159545        3       0.00007633       0.00009013       0.13475295
C        0.00000320       5.24818450      10.00159040        2      -0.00007615      -0.00017467       0.00175664
Ti      -0.00001056       6.99746812      11.31166599        0       0.00004743      -0.00005185       0.00123343
Ti       1.51501922       6.12277622       8.68979225        0      -0.00004677      -0.00001609       0.00218371
O        0.00001885       6.99750802       7.76922363        1       0.00006299       0.00005830       0.00241891
O        1.51592890       6.12201010      12.23159545        3      -0.00004989       0.00003279       0.12284915
C       -1.51494589       7.87212668      10.00166586        2      -0.00015171       0.00003816       0.00170389
Ti      -1.51516054       9.62173274      11.31156979        0      -0.00008633       0.00015716       0.00067619
Ti      -0.00000400       8.74689025       8.68979446        0      -0.00001134      -0.00005349       0.00222463
O       -1.51499304       9.62144854       7.76921160        1       0.00004660      -0.00027214       0.00210788
O       -0.00014146       8.74798565      12.23159545        3      -0.00004862      -0.00017908       0.11616603
C        6.06000768       0.00007539      10.00121028        2       0.00002118       0.00012335       0.00143266
Ti       6.06003870       1.74958288      11.31133403        0      -0.00005904       0.00015225      -0.00012390
Ti       7.57496452       0.87470190       8.68973460        0      -0.00002817      -0.00015214       0.00138861
O        6.05999231       1.74927871       7.76906602        1      -0.00002409      -0.00029007       0.00106590
O        7.57458969       0.87569110      12.23159545        3      -0.00006376      -0.00008524       0.13418361
C        4.54507181       2.62409080      10.00095314        2       0.00006811       0.00007280       0.00107776
Ti       4.54521394       4.37337010      11.31130050        0      -0.00000214      -0.00004252      -0.00019924
Ti       6.06001155       3.49874744       8.68961835        0      -0.00002794      -0.00001278       0.00055011
O        4.54491948       4.37345283       7.76905686        1      -0.00021728       0.00007707       0.00100438
O        6.06017501       3.49895181      12.23159545        3      -0.00009185       0.00006022       0.07658654
C        3.03008287       5.24807555      10.00116051        2       0.00007553      -0.00007330       0.00126565
Ti       3.03021889       6.99742362      11.31158844        0       0.00000704      -0.00007155       0.00066633
Ti       4.54499774       6.12276333       8.68971776        0      -0.00015832       0.00003275       0.00132715
O        3.02990403       6.99754410       7.76920450        1      -0.00036044       0.00015464       0.00200657
O        4.54564248       6.12194289      12.23159545        3       0.00002434      -0.00000701       0.12602297
C        1.51494765       7.87213202      10.00175110        2       0.00007293       0.00005181       0.00184785
Ti       1.51510974       9.62174430      11.31158210        0       0.00001656      -0.00001193       0.00074316
Ti       3.03003378       8.74686853       8.68979772        0       0.00004931       0.00000725       0.00207618
O        1.51499581       9.62143347       7.76921437        1      -0.00004602      -0.00034470       0.00205758
O        3.03034488       8.74688935      12.23159545        3       0.00008444       0.00001882       0.12879897
C        9.09003544       0.00000417      10.00127566        2      -0.00008571       0.00008932       0.00153928
Ti       9.08974393       1.74958038      11.31140357        0      -0.00010492       0.00005873       0.00014277
Ti      10.60492239       0.87472604       8.68968541        0      -0.00007638       0.00004364       0.00180443
O        9.09007824       1.74931560       7.76914167        1       0.00016593      -0.00013901       0.00153334
O       10.60379748       0.87518233      12.23159545        3       0.00018353      -0.00010873       0.12303979
C        7.57495757       2.62410253      10.00091100        2      -0.00008085       0.00005532       0.00104096
Ti       7.57487785       4.37338031      11.31124704        0      -0.00018192      -0.00005702      -0.00033306
Ti       9.08995234       3.49877822       8.68970942        0       0.00007033       0.00006661       0.00123924
O        7.57506761       4.37345348       7.76903183        1       0.00019065       0.00009712       0.00089401
O        9.08893071       3.49892693      12.23159545        3       0.00000524       0.00000092       0.12458870
C        6.06001738       5.24805439      10.00089236        2      -0.00001276      -0.00006373       0.00097219
Ti       6.06004055       6.99714849      11.31138061        0      -0.00012848      -0.00018959       0.00006589
Ti       7.57501092       6.12275356       8.68969985        0       0.00009613       0.00002904       0.00117793
O        6.05999117       6.99758761       7.76912354        1      -0.00000277       0.00018073       0.00146725
O        7.57452590       6.12187007      12.23159545        3       0.00002573       0.00004241       0.11981863
C        4.54502341       7.87218463      10.00124440        2       0.00006004      -0.00014623       0.00139002
Ti       4.54515414       9.62160724      11.31155227        0       0.00012399       0.00003166       0.00064723
Ti       6.05999730       8.74675643       8.68970430        0      -0.00000808      -0.00012534       0.00178836
O        4.54501634       9.62155394       7.76920718        1       0.00000464       0.00004287       0.00212365
O        6.05991630       8.74548391      12.23159545        3       0.00006159      -0.00000259       0.12854977
C        0.04471148       0.06746840      17.58949019       10       0.00618895       0.00161239      -0.06776854
C        1.25671734       0.76715507      17.58949019       10       0.00358279       0.00222381      -0.00455239
C       -1.16681323       2.16681866      17.58949019       10      -0.00119298       0.00070801      -0.05419565
C        0.04518493       2.86641657      17.58949019       10      -0.00255398       0.00162231      -0.01739515
C       -2.37874150       4.26613896      17.58949019       10       0.00097912      -0.00071092      -0.04185940
C       -1.16694375       4.96561819      17.58949019       10       0.00093029       0.00117332      -0.05092335
C       -3.59092467       6.36553969      17.58949019       10       0.00327420      -0.00092872      -0.04321173
C       -2.37919043       7.06520768      17.58949019       10       0.00224884      -0.00114802      -0.05083121
C       -4.80274758       8.46462166      17.58949019       10      -0.00035626      -0.00065371      -0.05058100
C       -3.59088684       9.16435914      17.58949019       10      -0.00282304      -0.00118774      -0.02291935
C        2.46880705       0.06737773      17.58949019       10       0.00481229       0.00216044      -0.05885925
C        3.68048744       0.76715320      17.58949019       10       0.00482993       0.00089420      -0.03361965
C        1.25707362       2.16675115      17.58949019       10      -0.00124791       0.00309568      -0.05896117
C        2.46886292       2.86640868      17.58949019       10      -0.00120269      -0.00017011      -0.03294573
C        0.04501561       4.26601498      17.58949019       10       0.00046435       0.00125968      -0.02933476
C        1.25687032       4.96566324      17.58949019       10       0.00081898      -0.00020581      -0.05532693
C       -1.16712965       6.36527419      17.58949019       10       0.00224035       0.00163585      -0.00598806
C        0.04481984       7.06509100      17.58949019       10       0.00164628      -0.00174515      -0.06856030
C       -2.37884409       8.46459671      17.58949019       10      -0.00103980      -0.00060843      -0.02367344
C       -1.16706266       9.16439811      17.58949019       10      -0.00100184      -0.00138995      -0.05927691
C        4.89273167       0.06732931      17.58949019       10       0.00324408       0.00026127      -0.03410471
C        6.10481859       0.76696601      17.58949019       10       0.00243817       0.00220864      -0.03897449
C        3.68088552       2.16665487      17.58949019       10      -0.00170643      -0.00007506      -0.03893788
C        4.89287827       2.86632545      17.58949019       10      -0.00196876      -0.00023835      -0.06375115
C        2.46874429       4.26617280      17.58949019       10       0.00011747      -0.00077576      -0.03757573
C        3.68077504       4.96586521      17.58949019       10      -0.00018949       0.00074746      -0.04177736
C        1.25680298       6.36532840      17.58949019       10       0.00196370       0.00021972      -0.00510889
C        2.46896796       7.06514082      17.58949019       10       0.00173581       0.00008254      -0.05547546
C        0.04513114       8.46462099      17.58949019       10      -0.00236229      -0.00216642      -0.00458716
C        1.25735319       9.16431168      17.58949019       10      -0.00313016      -0.00021631      -0.05937694
C        7.31692078       0.06723812      17.58949019       10       0.00104331       0.00144963      -0.03348701
C        8.52911683       0.76711707      17.58949019       10       0.00100980       0.00073590      -0.03791795
C        6.10511374       2.16637849      17.58949019       10      -0.00162598       0.00175112      -0.06461173
C        7.31736964       2.86638163      17.58949019       10      -0.00222064      -0.00162414      -0.06387487
C        4.89277986       4.26613382      17.58949019       10      -0.00086386       0.00015969      -0.06468435
C        6.10497023       4.96613867      17.58949019       10      -0.00045068      -0.00131289      -0.06438326
C        3.68067003       6.36547988      17.58949019       10       0.00123306       0.00016483      -0.03827717
C        4.89285788       7.06550324      17.58949019       10       0.00129991      -0.00306826      -0.04118454
C        2.46927954       8.46458155      17.58949019       10      -0.00470962      -0.00084302      -0.01678615
C        3.68133731       9.16442687      17.58949019       10      -0.00474170      -0.00202466      -0.03016282
C        9.74079584       0.06742040      17.58949019       10       0.00275113       0.00133046      -0.05410377
C       10.95288290       0.76723305      17.58949019       10       0.00033364       0.00074148      -0.00521790
C        8.52935009       2.16658200      17.58949019       10      -0.00220406       0.00123776      -0.04262367
C        9.74143756       2.86635502      17.58949019       10      -0.00321970       0.00100619      -0.03874348
C        7.31725542       4.26620214      17.58949019       10      -0.00085773      -0.00118936      -0.06528638
C        8.52926083       4.96593099      17.58949019       10      -0.00090782       0.00075286      -0.04563658
C        6.10480571       6.36570004      17.58949019       10       0.00259760      -0.00165382      -0.04584459
C        7.31689699       7.06542528      17.58949019       10       0.00122339      -0.00064360      -0.04266664
C        4.89311077       8.46470524      17.58949019       10      -0.00356212      -0.00214803      -0.05067941
C        6.10525191       9.16438056      17.58949019       10      -0.00620985      -0.00152566      -0.00596254
