132
Lattice="12.12 0.0 0.0 -6.06 10.496227893867395 0.0 0.0 0.0 40.0" Properties=species:S:1:pos:R:3:tags:I:1:forces:R:3 energy=-1208.907981756905 stress="0.0027995064721537573 1.3782150956419519e-06 -9.236825447376694e-07 1.3782150956419519e-06 0.0028004451167885037 -1.5793273460889452e-06 -9.236825447376694e-07 -1.5793273460889452e-06 0.002052956499693943" pbc="T T F"
C        0.00115427      -0.00280484      10.00399877        2       0.00034174      -0.00011420      -0.00015991
Ti      -0.00189954       1.74809406      11.32137311        0       0.00093976      -0.00028979      -0.00120619
Ti       1.51612496       0.87235715       8.69385735        0      -0.00043016      -0.00024963      -0.00254101
O        0.00031053       1.74748119       7.77549833        1       0.00034695      -0.00023180      -0.00016937
O        1.51536768       0.87262330      12.23159545        3       0.00032852      -0.00052188       0.11344524
C       -1.51424864       2.62159572      10.00682046        2       0.00044813      -0.00059555       0.00144588
Ti      -1.51545739       4.36811562      11.31274325        0       0.00209276       0.00042183      -0.00068239
Ti       0.00261402       3.49743233       8.69354357        0      -0.00037574      -0.00053814      -0.00172108
O       -1.51306937       4.36983968       7.77287072        1       0.00063206       0.00033172       0.00113585
O        0.00098885       3.49778747      12.23159545        3       0.00061878       0.00006029       0.14330466
C       -3.02877649       5.24491263      10.00176495        2       0.00033775      -0.00013327       0.00064230
Ti      -3.02957128       6.99248918      11.31306244        0       0.00019214       0.00054064      -0.00071864
Ti      -1.51256867       6.12020811       8.69196241        0      -0.00053341      -0.00087912      -0.00158203
O       -3.02803934       6.99432829       7.77154681        1       0.00028719      -0.00000883       0.00049695
O       -1.51438708       6.11612580      12.23159545        3       0.00016690       0.00007600       0.14063674
C       -4.54313338       7.86845777      10.00273939        2      -0.00035089       0.00056003      -0.00013853
Ti      -4.54361901       9.61867842      11.31238565        0      -0.00094230      -0.00079720      -0.00078455
Ti      -3.02850161       8.74381804       8.69161836        0      -0.00012914      -0.00048164      -0.00058852
O       -4.54341983       9.61962032       7.77241635        1       0.00039022      -0.00041234       0.00042711
O       -3.02846379       8.74268302      12.23159545        3      -0.00014485       0.00024906       0.13782240
C        3.03154942      -0.00257620      10.00412845        2      -0.00003689      -0.00014314       0.00111208
Ti       3.03156127       1.74675580      11.31240131        0      -0.00013030       0.00064160      -0.00047374
Ti       4.54685295       0.87238714       8.69153602        0       0.00011171       0.00011881      -0.00062720
O        3.03084745       1.74633200       7.77217293        1       0.00014677      -0.00033867       0.00034491
O        4.54840699       0.87390162      12.23159545        3      -0.00078667      -0.00063620       0.14169963
C        1.51624458       2.62186970      10.00436232        2       0.00002708      -0.00080225      -0.00020991
Ti       1.51756772       4.37128385      11.31280644        0       0.00044114      -0.00040050      -0.00101260
Ti       3.03123731       3.49554629       8.69275145        0       0.00001316      -0.00058784      -0.00125350
O        1.51588344       4.37040821       7.77159948        1       0.00053532       0.00016489      -0.00068167
O        3.03343091       3.49648950      12.23159545        3      -0.00044302      -0.00103606       0.15018679
C        0.00321989       5.24649873      10.00190058        2      -0.00037453      -0.00007492       0.00047999
Ti       0.00027702       6.99406964      11.31291929        0      -0.00023750       0.00091277      -0.00002408
Ti       1.51639840       6.12042899       8.69166164        0       0.00067947       0.00041733      -0.00138820
O        0.00131617       6.99484162       7.77097399        1       0.00038500       0.00010851       0.00018355
O        1.51630154       6.12021969      12.23159545        3       0.00029296       0.00063345       0.12463672
C       -1.51371882       7.86875870      10.00315543        2       0.00046039       0.00025024       0.00052652
Ti      -1.51383301       9.61934526      11.31337281        0       0.00111784      -0.00077212      -0.00012009
Ti       0.00130803       8.74426868       8.69190489        0      -0.00021555      -0.00003882      -0.00077182
O       -1.51376831       9.61896171       7.77157292        1      -0.00010189      -0.00012395       0.00188658
O        0.00170035       8.74426002      12.23159545        3      -0.00036924      -0.00024908       0.11583536
C        6.06202983      -0.00220264      10.00266390        2      -0.00029731      -0.00067221       0.00016865
Ti       6.06296136       1.74824272      11.31166864        0      -0.00055692      -0.00115890      -0.00065593
Ti       7.57691142       0.87144972       8.69173760        0       0.00036964       0.00028716      -0.00207067
O        6.06220289       1.74650706       7.77099135        1      -0.00032780      -0.00033968       0.00023627
O        7.57922193       0.87515035      12.23159545        3       0.00016863      -0.00059155       0.15708151
C        4.54740405       2.62156625      10.00201870        2      -0.00071792      -0.00029254      -0.00002968
Ti       4.54787977       4.36990112      11.31307174        0      -0.00074771      -0.00176106       0.00105060
Ti       6.06112946       3.49646191       8.69008982        0       0.00107946      -0.00058101      -0.00136976
O        4.54578054       4.37049539       7.76995488        1      -0.00033879      -0.00002027       0.00132605
O        6.06238388       3.49728025      12.23159545        3      -0.00089149      -0.00102599       0.15486177
C        3.03192879       5.24567341      10.00243686        2      -0.00003897      -0.00009413       0.00029193
Ti       3.03154691       6.99438202      11.31303556        0      -0.00026788      -0.00021626      -0.00015746
Ti       4.54593051       6.12041021       8.68882497        0      -0.00160620       0.00073943      -0.00149023
O        3.03083294       6.99524084       7.76977333        1      -0.00035217      -0.00048483       0.00171759
O        4.54805047       6.11840392      12.23159545        3      -0.00054714       0.00015004       0.13970679
C        1.51608003       7.86974794      10.00290317        2       0.00019164      -0.00046078       0.00029807
Ti       1.51679818       9.62038571      11.31322922        0      -0.00154085      -0.00068723      -0.00047867
Ti       3.03119459       8.74426700       8.69142716        0      -0.00013224      -0.00134861      -0.00134264
O        1.51638217       9.61889756       7.77094233        1      -0.00029978      -0.00095310      -0.00030075
O        3.03092321       8.74387137      12.23159545        3      -0.00042797      -0.00070431       0.14342672
C        9.09133605      -0.00514036      10.00163247        2      -0.00038012       0.00005019       0.00053663
Ti       9.09317446       1.74772847      11.31283773        0      -0.00006905      -0.00195639      -0.00067311
Ti      10.60599230       0.87052185       8.69343871        0      -0.00007020      -0.00009383      -0.00184615
O        9.09267916       1.74690148       7.77251558        1      -0.00016521      -0.00110687       0.00126744
O       10.60487156       0.87037883      12.23159545        3       0.00002776      -0.00121709       0.09578492
C        7.57653606       2.62163519      10.00090511        2       0.00022345      -0.00086370       0.00122000
Ti       7.57447938       4.37127412      11.30032320        0      -0.00318007       0.00200998      -0.00274934
Ti       9.09083158       3.49632615       8.69089188        0       0.00010202      -0.00042361      -0.00205704
O        7.57718726       4.37054699       7.76935789        1      -0.00020009      -0.00003513      -0.00055964
O        9.08754883       3.49647664      12.23159545        3      -0.00012032      -0.00020907       0.15320481
C        6.05960213       5.24648208       9.99965066        2       0.00124165      -0.00083229       0.00123404
Ti       6.06244384       6.99413229      11.31295098        0       0.00090153       0.00106782       0.00083796
Ti       7.57575517       6.12034765       8.69026849        0       0.00134837      -0.00110779      -0.00145241
O        6.06146208       6.99563261       7.77019319        1       0.00003896      -0.00019447       0.00095082
O        7.57475734       6.11732042      12.23159545        3       0.00025236       0.00131221       0.15396401
C        4.54645138       7.86890832      10.00259921        2      -0.00015562      -0.00044049       0.00018744
Ti       4.54622286       9.61682053      11.31244407        0       0.00071469      -0.00073893      -0.00083187
Ti       6.06188215       8.74485784       8.69293035        0       0.00030743       0.00015457      -0.00118508
O        4.54663905       9.61954385       7.77155940        1      -0.00012882      -0.00093327      -0.00027218
O        6.06155740       8.74296492      12.23159545        3       0.00040470       0.00042093       0.13176263
C        0.06743933       0.05776825      17.70566425       10       0.00059617       0.00148627      -0.06910329
C        1.27472549       0.76086639      17.71405248       10      -0.00221791      -0.00193553      -0.00546412
C       -1.12241350       2.14488999      17.68129358       10      -0.00258455      -0.00049478       0.48175408
C        0.06457707       2.85818145      17.68893232       10      -0.00388185      -0.00056188      -0.02086414
C       -2.36418572       4.29506811      17.68128803       10       0.00054005      -0.00167218       0.36113234
C       -1.15411153       4.96722594      17.68892976       10      -0.00111116      -0.00109883      -0.02784527
C       -3.57746482       6.37272267      17.70566370       10      -0.00073750       0.00114759      -0.02815208
C       -2.36474426       7.06515074      17.71405228       10       0.00043419      -0.00030427      -0.03119052
C       -4.78850639       8.46098306      17.70377131       10       0.00398410       0.00178036      -0.04479165
C       -3.57658229       9.16027899      17.71506097       10       0.00110252      -0.00230694      -0.01806358
C        2.48580995       0.06156985      17.71608599       10       0.00038822      -0.00114728      -0.03734913
C        3.69509288       0.76230711      17.71506088       10       0.00071654      -0.00131984      -0.02537611
C        1.27995569       2.15783766      17.70566446       10      -0.00264230      -0.00028452      -0.04611451
C        2.48519048       2.86195008      17.69660433       10      -0.00099887       0.00047048      -0.02296572
C        0.06197905       4.26304238      17.66280444       10      -0.00109456      -0.00044151      -0.03025529
C        1.26924325       4.96046678      17.67447439       10      -0.00010667       0.00066601      -0.05076291
C       -1.15343841       6.37099074      17.70566370       10       0.00105688      -0.00086445      -0.00048309
C        0.05955086       7.06257672      17.69660443       10       0.00081172       0.00182521      -0.06976705
C       -2.36508618       8.46366327      17.71608620       10       0.00220733      -0.00021081      -0.00685506
C       -1.15359909       9.16021313      17.71506097       10       0.00075267      -0.00022611      -0.04716127
C        4.90426618       0.06144238      17.71608599       10      -0.00074580      -0.00153249      -0.01616527
C        6.11561993       0.76046976      17.71405248       10      -0.00200326      -0.00071942      -0.03793990
C        3.69468653       2.16140817      17.70377118       10       0.00037417      -0.00014273      -0.04952686
C        4.90406649       2.86227626      17.69660433       10       0.00089878       0.00045950      -0.04281700
C        2.48282351       4.26049756      17.68272083       10       0.00108107       0.00130174      -0.02703730
C        3.69476499       4.96145863      17.67993297       10       0.00166205       0.00009974      -0.05260458
C        1.26949715       6.36152862      17.68272073       10       0.00083424       0.00119162      -0.01371299
C        2.48282192       7.06059733      17.67993286       10       0.00124614       0.00086485      -0.05715469
C        0.05785694       8.46076679      17.70377131       10      -0.00035596       0.00183260      -0.01052122
C        1.26964463       9.15827600      17.69660418       10      -0.00083129       0.00157542      -0.04777299
C        7.32240934       0.05844807      17.70566425       10      -0.00200035       0.00147799      -0.00865640
C        8.53765834       0.76112468      17.68893213       10      -0.00068366       0.00108534      -0.01398829
C        6.10868981       2.15688998      17.70566446       10       0.00066888      -0.00009696      -0.05580763
C        7.32529667       2.85653201      17.68893232       10       0.00088411       0.00134622      -0.03099667
C        4.90631442       4.26016655      17.68272083       10       0.00101541       0.00008065      -0.05231999
C        6.11957141       4.96107079      17.67447439       10       0.00009098       0.00050928      -0.07675350
C        3.69479164       6.36088842      17.67685497       10       0.00070803      -0.00034529      -0.03385192
C        4.90679656       7.06069312      17.67993286       10      -0.00073657      -0.00000361      -0.03694944
C        2.48155358       8.46079717      17.68272056       10       0.00035516       0.00202795      -0.01459328
C        3.69464057       9.16163926      17.67447398       10       0.00197481       0.00127932      -0.02523719
C        9.75516628       0.05976011      17.66280439       10       0.00125579       0.00276321      -0.05590675
C       10.97323584       0.76028644      17.68893213       10      -0.00370545      -0.00006366      -0.02136124
C        8.51507481       2.14539003      17.68129358       10       0.00155175       0.00144916       0.33671757
C        9.75480616       2.86273469      17.43693432       10      -0.00123164       0.00059752      -1.76195816
C        7.32741399       4.26367479      17.66280444       10       0.00106752       0.00150111      -0.10880496
C        8.54482803       4.96931559      17.68892976       10       0.00024082       0.00064793      -0.01869992
C        6.11999127       6.36208506      17.68272073       10      -0.00146138       0.00029382      -0.03911032
C        7.32935397       7.06309685      17.69660443       10      -0.00248011       0.00196626      -0.01426299
C        4.90763062       8.46075530      17.68272056       10       0.00321881       0.00103698      -0.04021079
C        6.12004907       9.15812583      17.69660418       10      -0.00071883      -0.00008341      -0.01466211
O        9.82312751       2.82502062      15.87935996       11       0.00646415       0.00048450       0.00584307
H        9.04894882       3.29090030      15.50922688       12      -0.00539671       0.00293069      -0.00448616
