131
Lattice="12.12 0.0 0.0 -6.06 10.496227893867395 0.0 0.0 0.0 40.0" Properties=species:S:1:pos:R:3:tags:I:1:forces:R:3 energy=-1205.2489990774259 stress="0.002852617353224439 2.9412739382206874e-07 2.0916010264333236e-06 2.9412739382206874e-07 0.002874797283893204 6.969956280216825e-06 2.0916010264333236e-06 6.969956280216825e-06 0.002740097338750308" pbc="T T F"
C       -0.34598609       0.04720782       9.99442591        2      -0.00422063       0.00288844       0.00362530
Ti      -0.34147064       1.79616283      11.30238940        0      -0.00057510       0.00054063       0.00218947
Ti       1.17420751       0.91779848       8.71457114        0       0.00287918       0.00403076       0.00193141
O       -0.33449419       1.79406347       7.77444628        1       0.00827839       0.00527846       0.00006703
O        1.16569975       0.92906523      12.23008024        3      -0.00103731      -0.00134157      -0.15959436
C       -1.85420092       2.66636261       9.99777873        2       0.00140952       0.00024104       0.00268738
Ti      -1.85352839       4.41387644      11.30496516        0       0.00108420       0.00039691      -0.00124213
Ti      -0.33978683       3.54220297       8.71566549        0       0.00448686       0.00033949       0.00327569
O       -1.85445388       4.42641924       7.78417753        1      -0.00024306       0.00446838       0.00105014
O       -0.33640196       3.53825131      12.23008024        3      -0.00135619       0.00194214      -0.15728460
C       -3.37081957       5.29288008      10.01290980        2      -0.00085590       0.00450170       0.00095812
Ti      -3.37297547       7.04281714      11.33061737        0      -0.00010735      -0.00384401      -0.00555435
Ti      -1.85393866       6.16527007       8.73519835        0      -0.00047917       0.00071821       0.00014368
O       -3.36097302       7.04636833       7.79571572        1      -0.00083220      -0.00395058      -0.00156458
O       -1.85322046       6.13367392      12.23008024        3      -0.00243713       0.00373882      -0.27909901
C       -4.88801552       7.91221964      10.00854023        2      -0.00372815       0.00626387       0.00240519
Ti      -4.90109527       9.67342254      11.29724989        0      -0.00119892       0.00121769       0.00183065
Ti      -3.36873416       8.79138051       8.74455483        0      -0.00240275       0.00135933      -0.00407436
O       -4.87449270       9.66179608       7.78524292        1       0.00373974      -0.00130317      -0.00070190
O       -3.46060275       8.80308804      12.23008024        3       0.00734792      -0.00586752      -0.70526453
C        2.69612853       0.03922435      10.02546460        2      -0.00647901      -0.00044014       0.00185556
Ti       2.68763022       1.79081812      11.30123348        0       0.00324476       0.00098847       0.00277514
Ti       4.20561578       0.91235518       8.73301828        0       0.00069206      -0.00164508      -0.00209360
O        2.69457003       1.78601429       7.78310644        1      -0.00042939       0.00155647       0.00146754
O        4.20633072       0.92861996      12.23008024        3       0.00104376      -0.00031360       0.02206639
C        1.17588636       2.66749223      10.00175790        2       0.00159727       0.00003958       0.00408512
Ti       1.17870374       4.41450692      11.30346223        0      -0.00399666      -0.00032696       0.00380333
Ti       2.69009846       3.54002208       8.71438374        0       0.00397018       0.00025268       0.00101537
O        1.17516817       4.41864578       7.77865423        1       0.00374270      -0.00133141       0.00289966
O        2.69217355       3.54313755      12.23008024        3      -0.00337930      -0.00174851      -0.15932683
C       -0.33688966       5.29270327      10.01257770        2       0.00120934       0.00331711       0.00039150
Ti      -0.33369205       7.04231023      11.32968449        0      -0.00070932       0.00055014      -0.00161267
Ti       1.17458655       6.16688065       8.72043302        0      -0.00111505       0.00275483       0.00302185
O       -0.34648201       7.04558816       7.79522448        1      -0.00132770       0.00228891      -0.00176115
O        1.18966523       6.15936742      12.23008024        3      -0.00188228      -0.00009150      -0.09848441
C       -1.85322057       7.92074050      10.05618693        2      -0.00296778       0.00233644       0.00126574
Ti      -1.85311227       9.65216130      11.37694997        0       0.00145289       0.00207272      -0.00430798
Ti      -0.33819390       8.79128740       8.74368168        0      -0.00103364       0.00083917       0.00108884
O       -1.85376420       9.65736637       7.80069043        1       0.00096577       0.00247301      -0.00135393
O       -0.24564697       8.80203184      12.23008024        3      -0.00725232       0.00238109      -0.71396339
C        5.71721350       0.03909722      10.02543675        2      -0.00272420       0.00024033       0.00061975
Ti       5.72564574       1.79076778      11.30125072        0      -0.00479690       0.00163896       0.00150204
Ti       7.23661653       0.91805029       8.71463635        0       0.00379923       0.00205400       0.00268955
O        5.71638000       1.78640087       7.78324064        1       0.00538000       0.00048481      -0.00001704
O        7.24732270       0.92861240      12.23008024        3      -0.00193868       0.00231800      -0.15752735
C        4.20588740       2.66518460      10.00649324        2       0.00092379      -0.00056087       0.00216521
Ti       4.20656958       4.41408574      11.30409651        0      -0.00070812       0.00115652       0.00086182
Ti       5.72029552       3.54042369       8.71428206        0       0.00258926      -0.00042544       0.00424559
O        4.20556174       4.41376995       7.77640840        1       0.00067374      -0.00012138      -0.00028185
O        5.72065395       3.54284230      12.23008024        3       0.00165221       0.00105496      -0.15712493
C        2.69215505       5.28951751      10.00299734        2      -0.00130967       0.00220624       0.00235601
Ti       2.69645529       7.04196096      11.30257809        0      -0.00055800       0.00246056       0.00152946
Ti       4.20604035       6.16395358       8.71304600        0       0.00168096      -0.00008999       0.00282367
O        2.68859520       7.03835037       7.77592110        1       0.00248201       0.00225440       0.00295869
O        4.20628285       6.16247305      12.23008024        3       0.00050999       0.00387082      -0.14702383
C        1.18128988       7.91240913      10.00793732        2      -0.00166947      -0.00040094       0.00182103
Ti       1.19454655       9.67337582      11.29747153        0      -0.00233050      -0.00135535       0.00031679
Ti       2.69145893       8.78832095       8.71108876        0       0.00113923       0.00103739       0.00243748
O        1.16710620       9.66173838       7.78479522        1      -0.00465466       0.00100353       0.00065297
O        2.70859569       8.78808145      12.23008024        3      -0.00103861      -0.00132239      -0.16714071
C        8.75866521       0.04752371       9.99436015        2       0.00019914      -0.00109438       0.00303722
Ti       8.75478096       1.79596485      11.30242496        0      -0.00233126       0.00152417       0.00012710
Ti      10.26553516       0.91759902       8.70863216        0      -0.00358688       0.00414916       0.00333554
O        8.74418731       1.79544657       7.77454271        1       0.00782926      -0.00535467       0.00093673
O       10.26618355       0.91917698      12.23008024        3       0.00202583      -0.00254078      -0.20663314
C        7.23567396       2.66771142      10.00207774        2       0.00194974      -0.00028642       0.00339808
Ti       7.23465503       4.41451513      11.30401400        0      -0.00338846       0.00107991       0.00021308
Ti       8.74984008       3.54254778       8.71574841        0       0.00335072      -0.00038038       0.00357562
O        7.23520520       4.41937879       7.77927748        1       0.00470029      -0.00272660       0.00052738
O        8.74945094       3.53848845      12.23008024        3      -0.00167763       0.00025512      -0.15425962
C        5.71998582       5.28987079      10.00343966        2       0.00128577       0.00027345       0.00118939
Ti       5.71620558       7.04240939      11.30310175        0       0.00122187      -0.00302468      -0.00012646
Ti       7.23757672       6.16758707       8.72159858        0       0.00046120       0.00079640      -0.00187579
O        5.72381795       7.03872090       7.77640618        1      -0.00283400       0.00090206       0.00268066
O        7.22359909       6.15967525      12.23008024        3      -0.00035432      -0.00025648      -0.09294906
C        4.20631622       7.91361658       9.99856222        2      -0.00029384       0.00025257       0.00320782
Ti       4.20645604       9.66802920      11.30065364        0      -0.00045263      -0.00332387       0.00279709
Ti       5.72101130       8.78876644       8.71120451        0      -0.00245570      -0.00376040       0.00161917
O        4.20623732       9.66228809       7.77175504        1      -0.00027373      -0.00503116      -0.00026705
O        5.70428483       8.78807623      12.23008024        3       0.00218199       0.00158388      -0.16531046
C        0.57371924       0.00360184      15.82612635       10      -0.00650411      -0.00581891       0.08145497
C        1.78444073       0.70309078      15.81083430       10       0.00053884      -0.00445355       0.06839207
C       -0.63664529       2.10126497      15.83144705       10       0.00109042      -0.00512750       0.07239265
C        0.57561448       2.80087714      15.81373662       10      -0.00136920      -0.00214416       0.06313702
C       -1.84910965       4.19816146      15.82612635       10       0.00376582      -0.00561997       0.09437977
C       -0.63737176       4.89659899      15.81083430       10      -0.00493042      -0.00058984       0.09019203
C       -3.05626951       6.30104443      15.76301560       10       0.00362013      -0.00137570       0.06808573
C       -1.84911242       6.97966064      15.72119338       10      -0.00266065       0.00539378      -0.23148813
C       -4.26784362       8.40326290      15.76301560       10      -0.00097605      -0.00453082       0.04759208
C       -3.07558220       9.10840873      15.72119338       10       0.00684603      -0.00343120      -0.35544253
C        2.99869354      -0.00343984      15.76301560       10      -0.00223766      -0.00183917       0.07126899
C        4.21118125       0.70161998      15.73093692       10      -0.00435283      -0.00215218       0.25463734
C        1.78733264       2.10096648      15.79979133       10      -0.00266024      -0.00373021       0.05276832
C        2.99902740       2.80073008      15.77787692       10      -0.00088422      -0.00275952       0.03601920
C        0.57471582       4.20050512      15.79979133       10      -0.00221902       0.00159775       0.05661026
C        1.78603297       4.90106990      15.77787692       10       0.00060766       0.00002526       0.03766284
C       -0.64203870       6.30109161      15.76301560       10      -0.00235024      -0.00141664       0.06837079
C        0.57379235       7.00056995      15.73093692       10       0.00103368      -0.00181376       0.24430949
C       -1.84924468       8.39692411      15.26838772       10      -0.00428086       0.00019287       1.16415271
C       -0.62292770       9.10838772      15.72119338       10      -0.00251121      -0.00833363      -0.36161360
C        5.42356306      -0.00355212      15.76301560       10      -0.00313993       0.00103116       0.07104129
C        6.63788361       0.70286806      15.81083430       10      -0.00428168      -0.00400450       0.06848831
C        4.21095567       2.09820085      15.76327063       10       0.00138847       0.00244920      -0.02336261
C        5.42291602       2.80053461      15.77787692       10       0.00322180       0.00004469       0.03618085
C        2.99840573       4.20086377      15.77519531       10      -0.00325430       0.00037136       0.06116948
C        4.21098383       4.90118083      15.77019454       10      -0.00129596      -0.00335650       0.05435779
C        1.78344085       6.30216334      15.76327063       10       0.00335625      -0.00038817      -0.01802123
C        2.99785373       7.00099570      15.77787692       10       0.00158668      -0.00173277       0.05769262
C        0.56925039       8.40320200      15.76301560       10       0.00566563       0.00012214       0.04771909
C        1.78865785       9.10135479      15.81083430       10       0.00160207      -0.00148265       0.09247779
C        7.84858497       0.00332046      15.82612635       10       0.00033499       0.00384738       0.08132955
C        9.06004938       0.70215348      15.83306487       10       0.00077980       0.00305063       0.05884614
C        6.63465798       2.10070474      15.79979133       10       0.00226263      -0.00309867       0.05264671
C        7.84634705       2.80053624      15.81373662       10       0.00399622       0.00452259       0.06314253
C        5.42354232       4.20069581      15.77519531       10      -0.00056533       0.00086427       0.06099541
C        6.63581280       4.90086209      15.77787692       10       0.00226611       0.00078926       0.03816583
C        4.21079991       6.30136905      15.77519531       10       0.00153757       0.00009264       0.07806899
C        5.42374728       7.00087393      15.77787692       10       0.00156402       0.00175822       0.05774293
C        2.99801915       8.40014352      15.79979133       10       0.00325630       0.00101067       0.03997976
C        4.21082367       9.09915840      15.81373662       10       0.00158762      -0.00118707       0.09550150
C       10.27126648       0.00226098      15.83144705       10      -0.00712464      -0.00507762       0.04669364
C       11.48231069       0.70237841      15.83306487       10      -0.00177810       0.00150012       0.05898748
C        9.05871735       2.10103803      15.83144705       10       0.00014150      -0.00333954       0.07231391
C       10.27102415       2.79947136      15.83306487       10      -0.00384041      -0.00002780       0.05012740
C        7.84715555       4.20024640      15.79979133       10       0.00236045       0.00202636       0.05589141
C        9.05919064       4.89646604      15.81083430       10       0.00079626       0.00312400       0.09046498
C        6.63818771       6.30198946      15.76327063       10      -0.00116784       0.00140824      -0.01776103
C        7.84782739       7.00048245      15.73093692       10      -0.00078566       0.00132418       0.24433501
C        5.42351054       8.40010111      15.79979133       10      -0.00039708      -0.00076909       0.04039858
C        6.63281025       9.10141596      15.81083430       10       0.00661714       0.00466786       0.09308609
O       -1.85131428       8.34383425      13.93886070       11      -0.00001364       0.00027302      -0.00328614
