131
Lattice="12.12 0.0 0.0 -6.06 10.496227893867395 0.0 0.0 0.0 40.0" Properties=species:S:1:pos:R:3:tags:I:1:forces:R:3 energy=-1204.6915135201032 stress="0.0028422618377410185 4.4159924638656265e-07 3.4406180861992826e-06 4.4159924638656265e-07 0.0028426843197190696 -9.989197607624973e-07 3.4406180861992826e-06 -9.989197607624973e-07 0.0020850738268119017" pbc="T T F"
C       -0.00087899       0.00062557      10.00528014        2       0.00008351       0.00011250      -0.00016580
Ti       0.00004952       1.74867497      11.31235286        0       0.00041002      -0.00048909      -0.00084000
Ti       1.51544104       0.87456185       8.69677085        0       0.00004793      -0.00031280       0.00066842
O        0.00158265       1.74864272       7.77219077        1       0.00048233       0.00013080      -0.00002403
O        1.51547501       0.87582732      12.23159545        3       0.00016334      -0.00004392       0.15901768
C       -1.51473419       2.62338139      10.00261393        2       0.00040677      -0.00022587       0.00031240
Ti      -1.51477019       4.36980000      11.31098092        0       0.00012564       0.00093479       0.00096985
Ti       0.00010632       3.49883881       8.69197304        0       0.00039823      -0.00011352       0.00092974
O       -1.51494936       4.37576773       7.77310234        1       0.00042457       0.00017719       0.00094294
O        0.00122497       3.49781101      12.23159545        3       0.00005363      -0.00042901       0.13963724
C       -3.02972151       5.24650935      10.00625613        2       0.00039026      -0.00056892       0.00043030
Ti      -3.02768515       6.99884255      11.33122619        0       0.00088698       0.00178815       0.00242019
Ti      -1.51470296       6.12093567       8.70042099        0       0.00027349      -0.00016351       0.00125233
O       -3.02789457       6.99936769       7.78118648        1       0.00035303      -0.00000234       0.00147970
O       -1.51502908       6.11723307      12.23159545        3       0.00054170      -0.00034048       0.11515711
C       -4.54443475       7.87225014      10.00946452        2       0.00023691      -0.00006415       0.00025644
Ti      -4.54525603       9.62202234      11.32228418        0       0.00261968      -0.00133384       0.00204091
Ti      -3.03077910       8.74731168       8.70165975        0       0.00062800      -0.00023771       0.00137406
O       -4.54254708       9.62035854       7.77798002        1       0.00084442      -0.00039343       0.00097646
O       -3.03277605       8.74791347      12.23159545        3       0.00020872      -0.00009422       0.03033402
C        3.03039947      -0.00043503      10.01030963        2       0.00030176      -0.00007139       0.00013550
Ti       3.03069144       1.74917743      11.31129693        0       0.00039583      -0.00096938       0.00127165
Ti       4.54514428       0.87397075       8.69809462        0       0.00048093       0.00009435       0.00104598
O        3.03072243       1.74708179       7.77435624        1       0.00040984      -0.00037513       0.00064515
O        4.54667419       0.87389803      12.23159545        3       0.00058063       0.00031276       0.12370153
C        1.51562201       2.62368140      10.00329531        2       0.00018549      -0.00051510       0.00070544
Ti       1.51485480       4.37328179      11.31195792        0      -0.00007786      -0.00051003      -0.00070666
Ti       3.02992097       3.49800535       8.69145518        0       0.00044029       0.00010364       0.00051329
O        1.51492423       4.37393647       7.77200711        1       0.00033600      -0.00010182      -0.00005312
O        3.03043732       3.49901720      12.23159545        3       0.00052947       0.00024271       0.12168539
C        0.00053950       5.24695843      10.00502684        2       0.00036290      -0.00011326       0.00082629
Ti      -0.00354320       6.99956552      11.32209669        0      -0.00039970       0.00042456       0.00202247
Ti       1.51433995       6.12315366       8.69400977        0       0.00079439      -0.00034737       0.00092981
O       -0.00259841       6.99914985       7.77906004        1       0.00029664      -0.00009542       0.00136202
O        1.51660281       6.12164952      12.23159545        3       0.00164353      -0.00080446       0.14159413
C       -1.51488622       7.87235642      10.01963886        2       0.00054082      -0.00018207      -0.00013353
Ti      -1.51500236       9.61915917      11.33430805        0      -0.00093361      -0.00146582       0.00218949
Ti       0.00186707       8.74764291       8.70058054        0       0.00039319      -0.00010231       0.00135068
O       -1.51544505       9.61909796       7.78175933        1       0.00031806      -0.00014608       0.00146378
O        0.00518431       8.74933439      12.23159545        3       0.00073516      -0.00018317       0.11273166
C        6.06168821       0.00058008      10.00689166        2       0.00075148       0.00005322       0.00052050
Ti       6.06100687       1.74929337      11.31196940        0       0.00015192      -0.00055188       0.00020123
Ti       7.57409543       0.87442453       8.69354871        0       0.00044006      -0.00008999       0.00080765
O        6.05857013       1.74809083       7.77273849        1       0.00026546      -0.00006404       0.00057701
O        7.57647831       0.87629173      12.23159545        3       0.00071672       0.00014141       0.14436011
C        4.54524799       2.62457871      10.00377935        2       0.00040215      -0.00028967       0.00026432
Ti       4.54512011       4.37348998      11.31233697        0       0.00076854      -0.00037212      -0.00125430
Ti       6.06045321       3.49846668       8.69071256        0       0.00008139       0.00010579       0.00101266
O        4.54501001       4.37343318       7.77146028        1       0.00026902      -0.00005631      -0.00058159
O        6.05981124       3.49911914      12.23159545        3       0.00051162      -0.00015629       0.08141293
C        3.02989950       5.24813087      10.00335936        2       0.00050710      -0.00016861      -0.00031517
Ti       3.02993087       6.99756185      11.31197809        0       0.00054363       0.00050005      -0.00074170
Ti       4.54560222       6.12334285       8.69144991        0       0.00027794      -0.00033700       0.00047443
O        3.02945383       6.99734224       7.77203057        1       0.00040155      -0.00011585      -0.00007766
O        4.54501946       6.12268008      12.23159545        3       0.00019614      -0.00033663       0.11302984
C        1.51638614       7.87229856      10.00521107        2       0.00039299      -0.00008859       0.00080276
Ti       1.51884120       9.62334093      11.31090027        0      -0.00076128      -0.00042761       0.00113471
Ti       3.02999053       8.74674651       8.69203496        0       0.00040623      -0.00019924       0.00094750
O        1.51301080       9.62042348       7.77325004        1       0.00016068      -0.00031238       0.00108952
O        3.03231587       8.74602097      12.23159545        3       0.00065295       0.00027234       0.14077284
C        9.09081279       0.00008702      10.00271519        2       0.00041225      -0.00004340       0.00032990
Ti       9.09002147       1.74967715      11.31182747        0       0.00076767      -0.00030203      -0.00156248
Ti      10.60515961       0.87461272       8.69046986        0       0.00037656      -0.00014969       0.00102028
O        9.08949095       1.74951328       7.77170461        1       0.00017966      -0.00001912      -0.00048206
O       10.60335328       0.87546321      12.23159545        3       0.00025438      -0.00008438       0.15172613
C        7.57437810       2.62463248      10.00273752        2       0.00041344      -0.00010560       0.00061644
Ti       7.57558930       4.37349343      11.31196314        0       0.00074035       0.00009335      -0.00015038
Ti       9.08973078       3.49948382       8.69298990        0       0.00039084      -0.00015062       0.00090261
O        7.57532744       4.37525303       7.77244195        1       0.00027655      -0.00002926       0.00045599
O        9.08946605       3.49747042      12.23159545        3       0.00037158      -0.00047568       0.13365919
C        6.05988168       5.24796832      10.00375974        2       0.00059787      -0.00001793       0.00026397
Ti       6.06053847       6.99704128      11.31091697        0       0.00113015       0.00038199       0.00104444
Ti       7.57583506       6.12326233       8.69731600        0       0.00025938      -0.00031936       0.00112032
O        6.06219920       6.99809266       7.77394648        1       0.00064014       0.00002903       0.00064576
O        7.57711263       6.12293784      12.23159545        3       0.00009025      -0.00051302       0.12357095
C        4.54575987       7.87184218      10.00308628        2       0.00065583       0.00023950       0.00070693
Ti       4.54599670       9.62180681      11.31244258        0       0.00063580       0.00019456      -0.00094033
Ti       6.06040380       8.74663523       8.69645211        0       0.00039701       0.00026897       0.00071593
O        4.54630809       9.62066586       7.77215509        1       0.00023261      -0.00040168      -0.00004804
O        6.05952014       8.74598059      12.23159545        3       0.00008612       0.00004095       0.15417277
C        0.04059201       0.07018859      17.53290471       10      -0.00261749       0.00002800      -0.03582051
C        1.24911630       0.77083033      17.51761266       10       0.00331412      -0.00031397       0.01077882
C       -1.16925825       2.16807445      17.53822541       10      -0.00178790      -0.00036137      -0.04593652
C        0.04239187       2.86745786      17.52051498       10      -0.00146752      -0.00063148      -0.01699623
C       -2.38040658       4.26512581      17.53290471       10      -0.00162717      -0.00166908      -0.02330647
C       -1.16962712       4.96133978      17.51761266       10      -0.00152577       0.00015710      -0.03956579
C       -3.58613916       6.36768841      17.46979396       10      -0.00073279      -0.00085279       0.00398842
C       -2.38078732       7.04890174      17.42797174       10      -0.00109018       0.00315663      -0.12682934
C       -4.80138984       8.47118538      17.46979396       10      -0.00294567      -0.00036462       0.00383477
C       -3.60873561       9.17471079      17.42797174       10       0.00470043      -0.00116442      -0.12994735
C        2.46406213       0.06316248      17.46979396       10       0.00124837      -0.00299180       0.00201172
C        3.67857428       0.76736354      17.43771528       10      -0.00095569       0.00011608      -0.07049183
C        1.25449269       2.16882171      17.50656969       10      -0.00096280      -0.00046656      -0.04585463
C        2.46567563       2.86620148      17.48465528       10      -0.00152683       0.00161730      -0.03441502
C        0.04340096       4.26702092      17.50656969       10      -0.00124392      -0.00005836      -0.03060810
C        1.25353153       4.96669483      17.48465528       10      -0.00057973       0.00027647      -0.04797297
C       -1.17501685       6.36743815      17.46979396       10      -0.00283199       0.00047830       0.03341979
C        0.04232293       7.06680192      17.43771528       10      -0.00107923      -0.00054321      -0.07917403
C       -2.38120300       8.46571196      16.97516608       10       0.00003825       0.00100966      -0.30069781
C       -1.15418723       9.17408544      17.42797174       10      -0.00147265      -0.00067044      -0.12638897
C        4.89336397       0.06235378      17.46979396       10      -0.00006643      -0.00004870       0.00595071
C        6.10826731       0.77002745      17.51761266       10      -0.00010080       0.00064939      -0.02755553
C        3.67876049       2.16368998      17.47004899       10      -0.00115983       0.00115300      -0.04529612
C        4.89180234       2.86607745      17.48465528       10      -0.00079416       0.00153004      -0.03991174
C        2.46684682       4.26739915      17.48197367       10      -0.00100087       0.00125501      -0.03835574
C        3.67890478       4.96713299      17.47697290       10      -0.00201627       0.00058351      -0.05036084
C        1.25148112       6.36868225      17.47004899       10      -0.00026095       0.00007351      -0.00557434
C        2.46655744       7.06782594      17.48465528       10      -0.00073892       0.00094412      -0.04794953
C        0.03903467       8.47083264      17.46979396       10      -0.00021391      -0.00012805       0.04020381
C        1.25947768       9.16907146      17.51761266       10      -0.00031539       0.00137456      -0.04391660
C        7.31700385       0.06943461      17.53290471       10       0.00170357       0.00204814      -0.01847017
C        8.52941552       0.76955153      17.53984323       10       0.00146086       0.00207800      -0.02644092
C        6.10339636       2.16795080      17.50656969       10       0.00010338       0.00069284      -0.04112643
C        7.31594476       2.86713788      17.52051498       10       0.00063302       0.00020316      -0.04246595
C        4.89093407       4.26729066      17.48197367       10      -0.00240818       0.00141200      -0.04396138
C        6.10491162       4.96711187      17.48465528       10      -0.00226078       0.00053444      -0.03694234
C        3.67878848       6.36681059      17.48197367       10      -0.00192195      -0.00036565      -0.04280728
C        4.89170580       7.06830467      17.48465528       10      -0.00181256      -0.00063026      -0.03716119
C        2.46742304       8.46578320      17.50656969       10       0.00025521       0.00131237      -0.01713122
C        3.67905772       9.16638987      17.52051498       10      -0.00045181       0.00148204      -0.03174913
C        9.73879190       0.06904973      17.53822541       10      -0.00165891      -0.00043309      -0.04659017
C       10.94853362       0.76995220      17.53984323       10       0.00257926       0.00064849       0.01053815
C        8.52760541       2.16760576      17.53822541       10       0.00046395      -0.00010355      -0.03402294
C        9.73941003       2.86509328      17.53984323       10       0.00008478      -0.00153227      -0.03054491
C        7.31532532       4.26684252      17.50656969       10      -0.00275267      -0.00072011      -0.03751928
C        8.52853013       4.96171689      17.51761266       10      -0.00059034      -0.00257897      -0.03233852
C        6.10667108       6.36903777      17.47004899       10      -0.00148015       0.00034820      -0.04542107
C        7.31600063       7.06732297      17.43771528       10       0.00002177      -0.00067060      -0.07188966
C        4.89015686       8.46597778      17.50656969       10      -0.00246288      -0.00119997      -0.04111375
C        6.09823516       9.16949773      17.51761266       10       0.00206026       0.00142317       0.00385180
O       -2.38873474       8.46642394      15.64241861       11      -0.00270978       0.00224481      -0.00661252
