130
Lattice="12.12 0.0 0.0 -6.06 10.496227893867395 0.0 0.0 0.0 40.0" Properties=species:S:1:pos:R:3:tags:I:1:forces:R:3 energy=-1200.2854999267317 stress="0.002829364437446744 -1.3734027481064465e-07 -6.335500776687344e-08 -1.3734027481064465e-07 0.002829503274956591 1.4365946822997684e-07 -6.335500776687344e-08 1.4365946822997684e-07 0.0028592219116207167" pbc="T T F"
C        0.00003220      -0.00000266       9.98011952        2      -0.00008616       0.00018506      -0.00003790
Ti      -0.00004623       1.74990922      11.29977347        0       0.00010180      -0.00016697      -0.00006308
Ti       1.51459454       0.87446117       8.69501035        0      -0.00030506      -0.00057481      -0.00269438
O       -0.00003667       1.74981612       7.77443217        1      -0.00013384       0.00106435      -0.00730099
O        1.51622357       0.87532281      12.23159545        3      -0.00098476      -0.00057289      -0.07021465
C       -1.51443388       2.62355389       9.98224717        2       0.00019383      -0.00006522       0.00193558
Ti      -1.51547580       4.37175942      11.30003935        0       0.00014702      -0.00144371      -0.00082755
Ti       0.00008418       3.49916320       8.69579957        0      -0.00019513       0.00141961      -0.00176846
O       -1.51511706       4.37354903       7.77517124        1      -0.00007879       0.00073377      -0.00644372
O       -0.00020240       3.49923395      12.23159545        3       0.00010270      -0.00075400      -0.06423248
C       -3.02973682       5.24831927       9.98262424        2      -0.00019026      -0.00029474       0.00277949
Ti      -3.03204417       6.99810034      11.30088286        0      -0.00067343       0.00023270      -0.00166291
Ti      -1.51467618       6.12304097       8.69728677        0      -0.00033287       0.00019378       0.00165913
O       -3.03001814       6.99735023       7.77521918        1       0.00039357      -0.00047715      -0.00604736
O       -1.51668943       6.12188576      12.23159545        3      -0.00041278      -0.00000645      -0.06858256
C       -4.54505312       7.87291023       9.98238967        2      -0.00042459       0.00018505       0.00201720
Ti      -4.54484074       9.62138365      11.29888334        0      -0.00002992       0.00033793      -0.00204767
Ti      -3.02947897       8.74671197       8.69591736        0       0.00111299      -0.00079682      -0.00105013
O       -4.54459676       9.62125949       7.77436816        1       0.00084081      -0.00055216      -0.00758273
O       -3.02988105       8.74640214      12.23159545        3      -0.00082824       0.00074956      -0.06229592
C        3.02925848      -0.00000904       9.98209267        2      -0.00023502       0.00065212       0.00177439
Ti       3.02913740       1.74886982      11.29915696        0      -0.00055388       0.00023235       0.00047961
Ti       4.54495934       0.87439693       8.69598609        0       0.00017097      -0.00022775      -0.00179347
O        3.03015991       1.74943691       7.77497971        1       0.00004332       0.00006342      -0.00717324
O        4.54610068       0.87687837      12.23159545        3      -0.00079182       0.00052615      -0.08388038
C        1.51455754       2.62347162       9.98195650        2       0.00018080      -0.00017357       0.00201398
Ti       1.51556276       4.37181053      11.30001083        0       0.00024569      -0.00123444       0.00041682
Ti       3.02963834       3.49879414       8.69598228        0      -0.00005430      -0.00000187      -0.00227636
O        1.51504145       4.37356982       7.77500554        1       0.00018688       0.00099143      -0.00640150
O        3.03227806       3.49882362      12.23159545        3       0.00030817      -0.00068505      -0.08541598
C        0.00009909       5.24821427       9.98241132        2       0.00019260      -0.00067076       0.00307696
Ti      -0.00028137       6.99706516      11.30884758        0       0.00026669      -0.00009479       0.00637475
Ti       1.51475159       6.12310208       8.69745606        0      -0.00008615       0.00048257       0.00144220
O       -0.00006562       6.99741977       7.77571805        1       0.00007516      -0.00002983      -0.00291640
O        1.51644756       6.12184705      12.23159545        3      -0.00004555       0.00028654      -0.06437110
C       -1.51486270       7.87236155       9.98232766        2      -0.00042691       0.00036997       0.00282373
Ti      -1.51633574       9.62302361      11.30110210        0      -0.00084869       0.00092937      -0.00089949
Ti       0.00008245       8.74647297       8.69765395        0       0.00003919       0.00000412       0.00237867
O       -1.51488501       9.62157441       7.77507348        1       0.00083686      -0.00025473      -0.00609172
O       -0.00011402       8.74858158      12.23159545        3      -0.00019258      -0.00020025      -0.06130522
C        6.06000515      -0.00053156       9.98246504        2      -0.00008765       0.00058349       0.00279260
Ti       6.05965108       1.74962752      11.30281358        0      -0.00035052       0.00009769       0.00056523
Ti       7.57496343       0.87441517       8.69632679        0      -0.00009195       0.00005797      -0.00122225
O        6.06000671       1.74926905       7.77550615        1       0.00004611      -0.00023846      -0.00650381
O        7.57416549       0.87704003      12.23159545        3       0.00021000       0.00074851      -0.08519693
C        4.54501802       2.62400607       9.98196950        2      -0.00033226      -0.00019781       0.00139862
Ti       4.54484450       4.37275801      11.30359579        0      -0.00070831      -0.00024284       0.00123091
Ti       6.05997831       3.49872623       8.69750245        0       0.00017004       0.00015183       0.00111630
O        4.54488763       4.37349355       7.77565758        1      -0.00034757       0.00014775      -0.00635840
O        6.06002329       3.49882236      12.23159545        3      -0.00008728      -0.00000488      -0.08834390
C        3.02961370       5.24838611       9.98245639        2       0.00023192      -0.00054946       0.00331019
Ti       3.03222465       6.99788487      11.30136677        0       0.00094979       0.00051577       0.00032191
Ti       4.54476827       6.12288626       8.69648254        0       0.00036982       0.00012398      -0.00086553
O        3.03007651       6.99737817       7.77511779        1      -0.00033001      -0.00047184      -0.00594906
O        4.54652093       6.12102817      12.23159545        3       0.00071559      -0.00038861      -0.08628366
C        1.51499456       7.87228491       9.98218743        2       0.00056672       0.00029485       0.00273396
Ti       1.51645516       9.62321164      11.30173983        0       0.00115203       0.00089719      -0.00019224
Ti       3.02943377       8.74659358       8.69608591        0      -0.00117698      -0.00064247      -0.00093387
O        1.51492282       9.62164996       7.77513138        1      -0.00055115      -0.00005836      -0.00593763
O        3.02990030       8.74667536      12.23159545        3       0.00048516       0.00025662      -0.06102126
C        9.09068974      -0.00010724       9.98230063        2       0.00027315       0.00024695       0.00213073
Ti       9.09108257       1.74886462      11.30020271        0       0.00031072      -0.00011284      -0.00173594
Ti      10.60548667       0.87435379       8.69499954        0       0.00021199      -0.00044908      -0.00264698
O        9.08988483       1.74942878       7.77526317        1       0.00000178      -0.00008820      -0.00678609
O       10.60356733       0.87542524      12.23159545        3       0.00163236      -0.00053154      -0.06892112
C        7.57486864       2.62396807       9.98206486        2       0.00005389      -0.00015956       0.00123681
Ti       7.57501558       4.37312184      11.30483610        0      -0.00051175      -0.00050805       0.00127091
Ti       9.09029203       3.49873896       8.69634971        0       0.00013901       0.00011709      -0.00103199
O        7.57516918       4.37351751       7.77589982        1       0.00032785       0.00010472      -0.00584421
O        9.08784496       3.49893211      12.23159545        3      -0.00050838      -0.00088897      -0.08517298
C        6.05992310       5.24806762       9.98205124        2      -0.00026180      -0.00023565       0.00115871
Ti       6.06004337       6.99886400      11.30084647        0      -0.00025167       0.00024423      -0.00040751
Ti       7.57514169       6.12295415       8.69653578        0       0.00008403       0.00012853      -0.00022820
O        6.06000744       6.99739900       7.77536209        1      -0.00008308       0.00012997      -0.00641030
O        7.57383371       6.12103869      12.23159545        3      -0.00087996      -0.00021070      -0.08492668
C        4.54512222       7.87284549       9.98239361        2       0.00009199       0.00010147       0.00231446
Ti       4.54485976       9.62139351      11.29830327        0       0.00055455       0.00057095      -0.00232147
Ti       6.05998384       8.74751414       8.69483937        0      -0.00000728       0.00048810      -0.00249567
O        4.54459517       9.62127117       7.77431080        1      -0.00111733      -0.00052285      -0.00754829
O        6.05998087       8.74507193      12.23159545        3       0.00044050       0.00134195      -0.06967992
C        0.04482301       0.06744691      15.74212177       10       0.00665534       0.00248262       0.06536039
C        1.25648714       0.76697721      15.74212177       10       0.00190141       0.00260870       0.03981791
C       -1.16639519       2.16618734      15.74212177       10       0.00262937      -0.00014457       0.06596599
C        0.04504754       2.86528785      15.74212177       10      -0.00056369       0.00177729       0.04210544
C       -2.37892903       4.26526890      15.74212177       10       0.00335307      -0.00275621       0.00231902
C       -1.16670597       4.96508339      15.74212177       10       0.00124653       0.00072652       0.01974270
C       -3.59168805       6.36573147      15.74212177       10       0.00490560      -0.00234452      -0.00296015
C       -2.37936017       7.06563223      15.74212177       10       0.00179491      -0.00174505       0.01867703
C       -4.80316783       8.46533955      15.74212177       10       0.00375212      -0.00241997       0.05993745
C       -3.59192276       9.16486784      15.74212177       10      -0.00084293      -0.00282810       0.04157225
C        2.46823489       0.06724415      15.74212177       10       0.00385602       0.00445763       0.06554215
C        3.67995566       0.76700596      15.74212177       10       0.00358622       0.00189575       0.02645522
C        1.25649774       2.16611884      15.74212177       10       0.00064227       0.00335075       0.06837588
C        2.46831340       2.86577528      15.74212177       10       0.00025298       0.00043534       0.02749667
C        0.04494033       4.26496154      15.74212177       10       0.00110793       0.00117140       0.05186447
C        1.25663248       4.96494240      15.74212177       10       0.00047700       0.00000380       0.02018369
C       -1.16751931       6.36487948      15.74212177       10       0.00166577       0.00224208       0.03315202
C        0.04496205       7.06507127      15.74212177       10       0.00054588      -0.00137009       0.02698608
C       -2.37989704       8.46503049      15.74212177       10       0.00118058      -0.00036784       0.04747418
C       -1.16780403       9.16445265      15.74212177       10       0.00098723      -0.00288391       0.02032221
C        4.89216805       0.06788208      15.74212177       10       0.00142927       0.00270786       0.01532298
C        6.10484933       0.76662403      15.74212177       10       0.00071107       0.00139391       0.02208523
C        3.67990768       2.16613815      15.74212177       10      -0.00112700       0.00033647       0.00910115
C        4.89208283       2.86590866      15.74212177       10      -0.00066084      -0.00131922       0.01209010
C        2.46887879       4.26514709      15.74212177       10       0.00001036      -0.00008380       0.01277070
C        3.68030811       4.96595087      15.74212177       10      -0.00034497       0.00023479       0.02249108
C        1.25731352       6.36479388      15.74212177       10       0.00037888       0.00119496       0.03622837
C        2.46918846       7.06559722      15.74212177       10       0.00114277      -0.00050310       0.01919582
C        0.04492230       8.46513845      15.74212177       10      -0.00051819      -0.00149764       0.03751993
C        1.25775333       9.16434878      15.74212177       10      -0.00118079      -0.00285123       0.02066271
C        7.31760695       0.06790510      15.74212177       10      -0.00088458       0.00282797       0.01106396
C        8.52985684       0.76698501      15.74212177       10      -0.00148121       0.00067766       0.02516036
C        6.10497815       2.16693695      15.74212177       10      -0.00078047       0.00120600      -0.03356365
C        7.31790611       2.86595820      15.74212177       10      -0.00168613      -0.00236767       0.00944852
C        4.89310875       4.26582571      15.74212177       10      -0.00082479      -0.00006012      -0.03304157
C        6.10495011       4.96673360      15.74212177       10      -0.00095438      -0.00169415       0.00561564
C        3.68154489       6.36559778      15.74212177       10      -0.00003955      -0.00033027       0.00321758
C        4.89305385       7.06610524      15.74212177       10      -0.00012078      -0.00344207       0.02500772
C        2.47012758       8.46514653      15.74212177       10      -0.00334211      -0.00198801       0.04459671
C        3.68222612       9.16500392      15.74212177       10      -0.00399352      -0.00431542       0.04079653
C        9.74161865       0.06741962      15.74212177       10       0.00055443       0.00301593       0.05961225
C       10.95350224       0.76712572      15.74212177       10      -0.00389757       0.00244012       0.03957638
C        8.53020969       2.16627273      15.74212177       10      -0.00179269       0.00181742      -0.00216283
C        9.74198064       2.86583751      15.74212177       10      -0.00431632       0.00228235       0.02794618
C        7.31694268       4.26594611      15.74212177       10      -0.00115936      -0.00092421      -0.03434991
C        8.52978248       4.96605440      15.74212177       10      -0.00315962       0.00273580       0.02127167
C        6.10504375       6.36649053      15.74212177       10       0.00120201      -0.00209762      -0.00985262
C        7.31696667       7.06610542      15.74212177       10      -0.00246022       0.00020109       0.02646000
C        4.89341143       8.46527291      15.74212177       10      -0.00199851      -0.00259115       0.05639332
C        6.10532098       9.16476885      15.74212177       10      -0.00670124      -0.00250756       0.03853449
