132
Lattice="12.12 0.0 0.0 -6.06 10.496227893867395 0.0 0.0 0.0 40.0" Properties=species:S:1:pos:R:3:tags:I:1:forces:R:3 energy=-1209.9360503999358 stress="0.0027638682318096948 6.327586073271149e-06 -3.5688472611703754e-06 6.327586073271149e-06 0.002769348754774472 -1.3401427444938642e-06 -3.5688472611703754e-06 -1.3401427444938642e-06 0.002583554097289727" pbc="T T F"
C       -0.12822570       0.09922130      10.00896950        2      -0.00091678       0.00199869      -0.00031302
Ti      -0.13660915       1.85299464      11.33177545        0      -0.00309900      -0.00090586       0.00100791
Ti       1.38597468       0.97651004       8.71041072        0      -0.00067035      -0.00053589      -0.00079752
O       -0.12906780       1.85054032       7.78374164        1      -0.00023523      -0.00010052      -0.00001711
O        1.38669947       0.97596230      12.23159545        3       0.00046643      -0.00000149       0.03388280
C       -1.64197932       2.72418789      10.01596650        2      -0.00129629      -0.00000834       0.00019109
Ti      -1.64065972       4.46819867      11.30415046        0       0.00069473      -0.00065172      -0.00123801
Ti      -0.12646397       3.59992524       8.70340816        0      -0.00026531      -0.00025269       0.00288990
O       -1.64357442       4.47351639       7.78033086        1       0.00124422      -0.00139250      -0.00281032
O       -0.12591949       3.60749842      12.23159545        3      -0.00050534      -0.00111450      -0.07862847
C       -3.16026088       5.35126638      10.00270337        2      -0.00073664      -0.00174905       0.00227580
Ti      -3.15948009       7.09246818      11.32249344        0       0.00041617       0.00026758      -0.00172038
Ti      -1.64367886       6.22646725       8.70332112        0      -0.00218675      -0.00265304       0.00178308
O       -3.15913168       7.10013018       7.77872392        1       0.00167538       0.00238873      -0.00180025
O       -1.64388252       6.21872020      12.23159545        3      -0.00072232       0.00053510       0.02420216
C       -4.67318571       7.97240228      10.00548188        2      -0.00201080      -0.00028705       0.00121921
Ti      -4.67396773       9.72243205      11.32487709        0      -0.00179526       0.00007292      -0.00098312
Ti      -3.15906040       8.84889955       8.70425630        0       0.00070448       0.00060500       0.00310733
O       -4.67431169       9.72429595       7.78253346        1       0.00196987      -0.00061342      -0.00197589
O       -3.15777431       8.84536632      12.23159545        3      -0.00170064       0.00097871       0.00696201
C        2.90214521       0.10089640      10.00752205        2       0.00003429       0.00078485      -0.00016616
Ti       2.90024409       1.85135991      11.32648341        0      -0.00088357       0.00018944      -0.00169177
Ti       4.41541079       0.97645932       8.70435065        0      -0.00008199      -0.00186986       0.00091982
O        2.89936530       1.85045943       7.78182328        1       0.00068529      -0.00223313      -0.00183258
O        4.41950291       0.97857085      12.23159545        3      -0.00194055       0.00064803      -0.00491819
C        1.38694698       2.72555234      10.00755341        2      -0.00195829      -0.00094354      -0.00041932
Ti       1.38821184       4.47494146      11.31788127        0      -0.00456855      -0.00195533       0.00136589
Ti       2.90063780       3.59971037       8.70585290        0       0.00120157      -0.00233948       0.00091312
O        1.38483589       4.47459877       7.77994231        1       0.00051776      -0.00014426       0.00036681
O        2.90420929       3.60136351      12.23159545        3       0.00235748      -0.00235371       0.01623261
C       -0.12803617       5.35116854      10.00364387        2      -0.00175041      -0.00040584       0.00117014
Ti      -0.13274559       7.09741345      11.32398664        0      -0.00149318      -0.00030010      -0.00109588
Ti       1.38508127       6.22512727       8.70483470        0       0.00161516       0.00182774       0.00132005
O       -0.12919273       7.09967385       7.77877514        1       0.00045690       0.00075894       0.00022889
O        1.38527958       6.22544863      12.23159545        3      -0.00149493       0.00240571       0.01073498
C       -1.64441874       7.97364087      10.00510460        2       0.00261557      -0.00215124      -0.00147169
Ti      -1.64385974       9.72443934      11.31976585        0       0.00093415      -0.00069351       0.00079531
Ti      -0.12991881       8.84900192       8.70574567        0       0.00066070      -0.00094963       0.00061646
O       -1.64465392       9.72335627       7.77932277        1      -0.00155223      -0.00041626      -0.00329137
O       -0.12761657       8.84937209      12.23159545        3       0.00070970      -0.00059300       0.01576597
C        5.93071635       0.10208260      10.00416810        2       0.00273556      -0.00081080      -0.00244260
Ti       5.93602732       1.85434734      11.31906524        0       0.00104307      -0.00168700      -0.00286453
Ti       7.44316698       0.97582141       8.70104579        0       0.00073584       0.00084683       0.00141199
O        5.92953756       1.85066176       7.77687360        1      -0.00081694      -0.00262936      -0.00157958
O        7.44911961       0.98077024      12.23159545        3      -0.00010402      -0.00120760       0.01164428
C        4.41578449       2.72627555      10.00313366        2      -0.00109491       0.00032069       0.00118493
Ti       4.41984975       4.47320169      11.32031047        0      -0.00365560      -0.00036556      -0.00126507
Ti       5.92776800       3.60098260       8.70157599        0      -0.00172440      -0.00002782       0.00093382
O        4.41317561       4.47475489       7.77527011        1       0.00028777      -0.00272060      -0.00109982
O        5.93448753       3.60080611      12.23159545        3      -0.00042466      -0.00032853       0.01746989
C        2.90226778       5.35080385      10.00462827        2      -0.00164813       0.00030724      -0.00181982
Ti       2.89998111       7.09967344      11.32056103        0       0.00051299      -0.00092972      -0.00223293
Ti       4.41441721       6.22509488       8.69857194        0       0.00121283       0.00051241      -0.00023538
O        2.89831214       7.10038374       7.77641341        1      -0.00187000       0.00194957       0.00043458
O        4.41689215       6.22277848      12.23159545        3      -0.00053574       0.00020796      -0.00302491
C        1.38569322       7.97415189      10.00514272        2       0.00165440      -0.00137891       0.00194099
Ti       1.38664731       9.72631036      11.32471041        0       0.00122896       0.00092957      -0.00182416
Ti       2.90014905       8.84855750       8.70325965        0      -0.00014868      -0.00431217       0.00285408
O        1.38548893       9.72281550       7.77869540        1       0.00012691      -0.00202390      -0.00088642
O        2.90020128       8.84930998      12.23159545        3      -0.00224533      -0.00116512       0.02164428
C        8.96039697       0.09950083      10.00463995        2      -0.00119428       0.00154606      -0.00030401
Ti       8.97200709       1.84499433      11.30812720        0      -0.00086148       0.00101283      -0.00167795
Ti      10.47758654       0.97400357       8.70756128        0      -0.00115888       0.00051106       0.00122870
O        8.96302587       1.85137577       7.78224755        1       0.00021612      -0.00207535      -0.00667831
O       10.47230158       0.96610035      12.23159545        3      -0.00135909       0.00143405      -0.18130888
C        7.44404957       2.72517787      10.00110635        2       0.00111643       0.00018723       0.00402088
Ti       7.44492584       4.47377433      11.29925240        0      -0.00119010      -0.00070840      -0.00387954
Ti       8.95866229       3.60212661       8.69266806        0      -0.00126931       0.00002294       0.00300433
O        7.44665758       4.47538093       7.77632489        1      -0.00057468      -0.00155662       0.00098842
O        8.94990989       3.60072071      12.23159545        3       0.00043578      -0.00013495       0.12117211
C        5.92401045       5.35407030       9.99725108        2      -0.00087835      -0.00027485       0.00261021
Ti       5.93409111       7.09618336      11.32026506        0      -0.00207358       0.00324748      -0.00228416
Ti       7.44369185       6.22714512       8.70215090        0       0.00051243      -0.00113898       0.00030764
O        5.92995773       7.10156787       7.77585585        1       0.00320743       0.00098106      -0.00168518
O        7.44480542       6.21894207      12.23159545        3      -0.00012937      -0.00112800       0.01133099
C        4.41594319       7.97063590      10.00367467        2      -0.00081649       0.00074427      -0.00165309
Ti       4.41856025       9.72015779      11.31821435        0      -0.00150656       0.00622553       0.00080018
Ti       5.93097090       8.84893803       8.70609977        0       0.00290050      -0.00107470      -0.00039922
O        4.41631133       9.72391601       7.78070614        1       0.00070128      -0.00037097       0.00013344
O        5.93220956       8.84578582      12.23159545        3       0.00241680      -0.00182990       0.02223853
C        0.26605929      -0.10350167      16.28461162       10      -0.00480125       0.00155378       0.00086003
C        1.47276170       0.60017745      16.29299985       10      -0.00351965       0.00417217      -0.00601553
C       -0.92361242       1.98248785      16.26024095       10      -0.00262195       0.00386910       0.70485731
C        0.26314627       2.69779366      16.26787969       10      -0.00414872      -0.00418758       0.06472135
C       -2.16852450       4.13704085      16.26023540       10       0.00256976      -0.00603829       0.34926373
C       -0.95561700       4.80683037      16.26787713       10       0.00070547      -0.00484701       0.05358971
C       -3.37998497       6.21219411      16.28461107       10       0.00171863      -0.00030264       0.00489710
C       -2.16642881       6.90302925      16.29299965       10       0.00187555       0.00360101       0.01877197
C       -4.59071382       8.29996904      16.28271868       10       0.00736727      -0.00275376       0.01151542
C       -3.37817245       8.99894376      16.29400834       10       0.00807495       0.00445207      -0.00817452
C        2.68441149      -0.09989411      16.29503336       10      -0.00205530       0.00546224       0.02054995
C        3.89392331       0.60166013      16.29400825       10       0.00226836      -0.00379484      -0.00561163
C        1.47875906       1.99604551      16.28461183       10      -0.00204578       0.00238966      -0.00929860
C        2.68389509       2.70133890      16.27555170       10       0.00323632       0.00229750       0.02256692
C        0.26109018       4.10291447      16.24175181       10      -0.00420538      -0.00749720      -0.02192932
C        1.46850084       4.80045499      16.25342176       10      -0.00651673       0.00088022       0.02630263
C       -0.95546275       6.21086429      16.28461107       10       0.00088022      -0.00065517      -0.00832495
C        0.25811203       6.90222881      16.27555180       10      -0.00012656       0.00273512       0.04841258
C       -2.16735213       8.30308524      16.29503357       10       0.00385806       0.00419659       0.00853874
C       -0.95484180       8.99958389      16.29400834       10      -0.00114398      -0.00161955       0.01012664
C        5.10234986      -0.09910179      16.29503336       10       0.00041677      -0.00348277       0.01866923
C        6.31452678       0.60098898      16.29299985       10      -0.00178437       0.00065892      -0.01366017
C        3.89301298       2.00027284      16.28271855       10       0.00445081      -0.00274066       0.00805204
C        5.10261046       2.70137855      16.27555170       10       0.00102329       0.00552226       0.00060638
C        2.68166832       4.09933650      16.26166820       10       0.00015617       0.00609289      -0.01018868
C        3.89278091       4.80052477      16.25888034       10       0.00262736       0.00421295       0.01627409
C        1.46755358       6.20106194      16.26166810       10       0.00194959       0.00374793      -0.03444602
C        2.68026144       6.89967908      16.25888023       10       0.00876315      -0.00395471       0.03816369
C        0.25595972       8.30081663      16.28271868       10      -0.00644302       0.00085587      -0.00565904
C        1.46732045       8.99853549      16.27555155       10      -0.00488449      -0.00319419       0.01831634
C        7.51962430      -0.10129382      16.28461162       10       0.00186305       0.00235139       0.00817746
C        8.73490060       0.60128321      16.26787950       10       0.00516820       0.00054735       0.04326470
C        6.30637287       1.99651832      16.28461183       10      -0.00120460       0.00204033       0.01693361
C        7.52193801       2.69792086      16.26787969       10       0.00239719      -0.00371158       0.03399344
C        5.10421092       4.09879863      16.26166820       10       0.00102806       0.00580916       0.02152942
C        6.31634272       4.79976088      16.25342176       10       0.00052838       0.00228983      -0.03055361
C        3.89237960       6.19972642      16.25580234       10       0.00639169      -0.00142595      -0.02783585
C        5.10357196       6.89879415      16.25888023       10      -0.00214068       0.00105440       0.00971992
C        2.67873917       8.30022296      16.26166793       10      -0.00105016      -0.00331832      -0.00820197
C        3.89146546       8.99961779      16.25342135       10      -0.00053959       0.00201472      -0.00989816
C        9.95172706      -0.10189511      16.24175176       10       0.00344120       0.00489003       0.00478726
C       11.16955828       0.59863715      16.26787950       10       0.00054408       0.00986793       0.02982126
C        8.71024651       1.98635584      16.26024095       10       0.00272668      -0.00018888       0.39103101
C        9.94951483       2.70593774      16.01588169       10      -0.00235857      -0.00023490      -1.87608987
C        7.52380848       4.10323523      16.24175181       10       0.00089407      -0.00146699      -0.02912955
C        8.73984433       4.80830804      16.26787713       10       0.00292149      -0.00176271       0.04232044
C        6.31769414       6.20092545      16.26166810       10      -0.00653065       0.00104443       0.01700810
C        7.52696188       6.90162934      16.27555180       10      -0.00507179      -0.00316680       0.00818891
C        5.10572418       8.29962792      16.26166793       10      -0.00154761      -0.00229130       0.00228569
C        6.31757631       8.99669192      16.27555155       10       0.00376240      -0.00141541      -0.00133857
O       10.04597571       2.63534676      14.49882638       11       0.00236088      -0.00531231       0.00239437
H        9.37720178       3.18702768      14.03848167       12      -0.00208819       0.00380025      -0.00114439
