131
Lattice="12.12 0.0 0.0 -6.06 10.496227893867395 0.0 0.0 0.0 40.0" Properties=species:S:1:pos:R:3:tags:I:1:forces:R:3 energy=-1202.3134040395003 stress="0.0025647528469633944 -7.897432085793726e-08 -1.2584500148554856e-07 -7.897432085793726e-08 0.002564857579394915 -2.740089324330269e-07 -1.2584500148554856e-07 -2.740089324330269e-07 0.0029732762013536434" pbc="T T F"
C       -0.34733168      -0.44644628       9.98568963        2      -0.00102848       0.00012503      -0.00022113
Ti      -0.34453233       1.30431759      11.26913475        0      -0.00029027      -0.00047748      -0.00018844
Ti       1.17330666       0.42779246       8.71147656        0       0.00078240      -0.00034642      -0.00084793
O       -0.32877377       1.29516677       7.75800993        1       0.00223329      -0.00050236      -0.00125056
O        1.16142438       0.43470090      12.23008024        3      -0.00007752      -0.00216954      -0.36429265
C       -1.85115376       2.17425862       9.98631991        2      -0.00384231       0.00094141      -0.00090548
Ti      -1.85148842       3.91440024      11.26904489        0       0.00099017      -0.00107970      -0.00082622
Ti      -0.33334297       3.05089910       8.69320393        0      -0.00450161      -0.00251521       0.00174279
O       -1.85125897       3.93288583       7.75787852        1      -0.00134112      -0.00078712      -0.00193562
O       -0.34024531       3.04703116      12.23008024        3       0.00079695      -0.00060164      -0.47667020
C       -3.36896178       4.78715118       9.98510137        2      -0.00115977       0.00044238       0.00433065
Ti      -3.37632526       6.53367720      11.28668765        0      -0.00161998      -0.00178718      -0.00093958
Ti      -1.85181076       5.66722774       8.71105284        0       0.00169496      -0.00019570      -0.00070215
O       -3.35377162       6.55980920       7.77589553        1       0.00288453       0.00045826       0.00150904
O       -1.85191499       5.65340829      12.23008024        3       0.00213182       0.00059659      -0.36650646
C       -4.90119864       7.41080680       9.96930369        2      -0.00107384       0.00177383       0.00073523
Ti      -4.89867938       9.17017463      11.28696655        0       0.00036467       0.00002384       0.00022838
Ti      -3.36763981       8.29633023       8.73456522        0      -0.00028739       0.00082319      -0.00004402
O       -4.86436195       9.17700277       7.77677689        1      -0.00211355       0.00190741      -0.00415459
O       -3.63375450       8.14229496      12.23008024        3      -0.00530692       0.00163221      -0.49760483
C        2.70485443      -0.45650240      10.05888872        2       0.00169463      -0.00296631      -0.00083734
Ti       2.68584452       1.31514723      11.28731606        0       0.00155144       0.00258440      -0.00040615
Ti       4.20877273       0.42555975       8.73488661        0      -0.00386444       0.00547513      -0.00057311
O        2.69736357       1.28177030       7.77659295        1      -0.00080168       0.00038776      -0.00028352
O        4.20787219       0.73324856      12.23008024        3       0.00634999       0.00359000      -0.49527452
C        1.16994007       2.18209721       9.98581139        2       0.00089340      -0.00139152      -0.00360667
Ti       1.17659290       3.92251807      11.27857557        0      -0.00260720      -0.00040319      -0.00036224
Ti       2.69576502       3.04888563       8.69447505        0       0.00300720      -0.00189651      -0.00086457
O        1.17872118       3.92382509       7.75087578        1      -0.00190488      -0.00066265      -0.00132719
O        2.68341362       3.08815909      12.23008024        3       0.00022423       0.00053779      -0.48535325
C       -0.33413100       4.78735561       9.98549741        2      -0.00074006       0.00089566       0.00034967
Ti      -0.32743997       6.53361648      11.28707385        0       0.00580885      -0.00031295      -0.00165462
Ti       1.17947098       5.67522832       8.69454355        0      -0.00114201       0.00209411       0.00017761
O       -0.34998656       6.56025205       7.77627627        1       0.00022632      -0.00160714       0.00015949
O        1.20709746       5.64478697      12.23008024        3       0.00027185       0.00284128      -0.48472423
C       -1.85162608       7.43587811      10.05850353        2      -0.00252810       0.00035480       0.00193132
Ti      -1.85210039       9.17179562      11.36027205        0       0.00220131       0.00035227      -0.00360570
Ti      -0.33568150       8.29692756       8.73462157        0      -0.00035055      -0.00417086       0.00127252
O       -1.85171701       9.17167711       7.79688232        1       0.00021713       0.00097567      -0.00063798
O       -0.07039253       8.14325388      12.23008024        3      -0.00063923      -0.00302743      -0.49223299
C        5.71137579      -0.45653291      10.05895275        2       0.00075271       0.00048797       0.00057228
Ti       5.73027778       1.31558520      11.28725278        0      -0.00039581      -0.00291007       0.00055376
Ti       7.24398012       0.42820676       8.71213729        0      -0.00255761       0.00119078      -0.00309977
O        5.71967567       1.28211547       7.77694628        1      -0.00024687      -0.00222053      -0.00260442
O        7.25497962       0.43465688      12.23008024        3       0.00174614       0.00041117      -0.36313541
C        4.20831602       2.19677440       9.96961709        2       0.00124955       0.00077505      -0.00063582
Ti       4.20867946       3.93310280      11.26678852        0      -0.00279155      -0.00151778       0.00212802
Ti       5.72091148       3.04902630       8.69465660        0       0.00036944       0.00051953      -0.00282764
O        4.20818445       3.92453700       7.74410144        1       0.00106428       0.00298182       0.00008135
O        5.73321684       3.08845017      12.23008024        3       0.00190229      -0.00233953      -0.48522538
C        2.69649215       4.80002854       9.98034125        2      -0.00099579       0.00247276      -0.00124854
Ti       2.70120573       6.54318171      11.26759619        0       0.00078400      -0.00051144      -0.00223438
Ti       4.20759957       5.67290255       8.68227277        0       0.00555287       0.00050474      -0.00007545
O        2.69394908       6.54709219       7.74449874        1       0.00319872       0.00204158      -0.00383963
O        4.20847700       5.67321527      12.23008024        3      -0.00055679      -0.00058177      -0.47832009
C        1.19768166       7.41118655       9.96966421        2       0.00069471       0.00061925       0.00045951
Ti       1.19494378       9.16996664      11.28758845        0       0.00335636       0.00254599      -0.00338879
Ti       2.69212532       8.29536792       8.69481221        0       0.00027135      -0.00288121      -0.00030623
O        1.16109085       9.17767406       7.77695193        1       0.00139942      -0.00145655      -0.00409010
O        2.73220072       8.28587977      12.23008024        3      -0.00178537       0.00101181      -0.48388606
C        8.76422030      -0.44629247       9.98592451        2      -0.00014504       0.00007383      -0.00009213
Ti       8.76139744       1.30367880      11.26974395        0      -0.00054001       0.00337337      -0.00289874
Ti      10.26867762       0.42211969       8.69341397        0      -0.00104785      -0.00099576       0.00063591
O        8.74567290       1.29524411       7.75826613        1      -0.00001313      -0.00120298      -0.00146610
O       10.26849768       0.42878203      12.23008024        3      -0.00055159       0.00126374      -0.47525890
C        7.24710766       2.18204678       9.98585783        2      -0.00257302      -0.00048572       0.00134661
Ti       7.24086002       3.92241708      11.27839175        0      -0.00065121      -0.00268725      -0.00201539
Ti       8.75108793       3.05083259       8.69347514        0      -0.00372219      -0.00138381      -0.00094826
O        7.23832464       3.92340922       7.75103058        1       0.00020536       0.00085883      -0.00137566
O        8.75746886       3.04695242      12.23008024        3      -0.00376608      -0.00063476      -0.47660226
C        5.72002616       4.80013852       9.98016913        2       0.00274126       0.00037875       0.00019415
Ti       5.71593994       6.54304567      11.26749943        0      -0.00519764      -0.00153095      -0.00366403
Ti       7.23656317       5.67512525       8.69393533        0       0.00176997      -0.00277127       0.00069669
O        5.72185036       6.54678541       7.74390713        1      -0.00011772       0.00209940       0.00019435
O        7.20968035       5.64450658      12.23008024        3      -0.00154473       0.00263467      -0.48594934
C        4.20830450       7.41887336       9.98014633        2      -0.00030243      -0.00133996       0.00097086
Ti       4.20860956       9.17390309      11.27827979        0      -0.00292615       0.00231824      -0.00134007
Ti       5.72414886       8.29474237       8.69443194        0       0.00173110       0.00051635      -0.00040510
O        4.20835051       9.17212931       7.75123344        1      -0.00091141      -0.00260677      -0.00330921
O        5.68430804       8.28587242      12.23008024        3       0.00333217       0.00006117      -0.48414618
C        0.56978861       0.77497087      15.11560003       10       0.00286443       0.00223091       0.21761628
C        1.77988500       1.47530775      15.10030798       10       0.00083512      -0.00078925       0.10962421
C       -0.64032481       2.87357323      15.12092073       10       0.00164081       0.00049469       0.18517975
C        0.57161620       3.57329849      15.10321030       10       0.00120143       0.00054036       0.10190771
C       -1.85243585       4.97099973      15.11560003       10       0.00135953       0.00040720       0.21764643
C       -0.64086746       5.66881046      15.10030798       10      -0.00002499       0.00098872       0.10960492
C       -3.05963618       7.07552150      15.05248928       10      -0.00389508      -0.00045294       0.14217017
C       -1.85221134       7.75503231      15.01066706       10      -0.00288896       0.00110547      -0.28868961
C       -4.27131899       9.17343039      15.05248928       10       0.00280461      -0.00045332       0.14180650
C       -3.07917732       9.87940730      15.01066706       10       0.00170390      -0.00272326      -0.28376723
C        2.99606972       0.76855861      15.05248928       10       0.00093773      -0.00003850       0.14169404
C        4.20743584       1.47514888      15.02041060       10      -0.00140959       0.00334293       0.41228000
C        1.78366510       2.87261040      15.08926501       10       0.00216775       0.00051708       0.15453856
C        2.99513159       3.57218776      15.06735060       10       0.00273829       0.00217810       0.17656091
C        0.57111680       4.97336097      15.08926501       10       0.00033900      -0.00104435       0.15465722
C        1.78288806       5.67247907      15.06735060       10      -0.00188117       0.00071471       0.17650568
C       -0.64479075       7.07545394      15.05248928       10      -0.00102646      -0.00014711       0.14141158
C        0.57292284       7.77102015      15.02041060       10      -0.00188128      -0.00236309       0.41233950
C       -1.85262080       9.17130036      14.55786140       10       0.00265660       0.00055886       1.44287646
C       -0.62601827       9.87927790      15.01066706       10       0.00106828       0.00076616      -0.28604362
C        5.41873561       0.76850936      15.05248928       10      -0.00080390      -0.00047025       0.14189713
C        6.63480308       1.47545391      15.10030798       10       0.00076357      -0.00126477       0.10938462
C        4.20739017       2.86994917      15.05274431       10       0.00193794       0.00081957      -0.00179974
C        5.41964069       3.57236258      15.06735060       10       0.00189439       0.00010858       0.17634375
C        2.99524157       4.97222930      15.06466899       10      -0.00237076       0.00118777       0.09895126
C        4.20774923       5.67224949      15.05966822       10      -0.00417516       0.00172275       0.20135397
C        1.78080095       7.07347553      15.05274431       10      -0.00082498       0.00068276      -0.00192997
C        2.99513031       7.77210060      15.06735060       10      -0.00130287       0.00151419       0.17649129
C        0.56624237       9.17338445      15.05248928       10       0.00000131      -0.00093428       0.14162896
C        1.78639421       9.87317360      15.10030798       10       0.00070455      -0.00134254       0.10932577
C        7.84486062       0.77510005      15.11560003       10       0.00030913      -0.00278295       0.21784591
C        9.05667123       1.47461074      15.12253855       10       0.00027662       0.00208822       0.03883875
C        6.63106138       2.87283525      15.08926501       10       0.00080935      -0.00380500       0.15495875
C        7.84321479       3.57349138      15.10321030       10      -0.00047532      -0.00207316       0.10163121
C        5.42018488       4.97237724      15.06466899       10      -0.00215943       0.00109863       0.09905135
C        6.63249440       5.67275164      15.06735060       10      -0.00050603      -0.00218991       0.17629835
C        4.20772912       7.07226691      15.06466899       10      -0.00104905       0.00148218       0.09922740
C        5.42025053       7.77219830      15.06735060       10      -0.00068370       0.00088863       0.17635426
C        2.99463925       9.17106835      15.08926501       10      -0.00104692       0.00053656       0.15499002
C        4.20744261       9.87041420      15.10321030       10      -0.00056710       0.00182836       0.10168793
C       10.26732305       0.77360040      15.12092073       10       0.00181968       0.00327486       0.18518831
C       11.47799837       1.47460584      15.12253855       10       0.00056147      -0.00100874       0.03911016
C        9.05507433       2.87361492      15.12092073       10      -0.00031053       0.00114504       0.18517262
C       10.26741397       3.57169800      15.12253855       10      -0.00022901       0.00097474       0.03918880
C        7.84411167       4.97355879      15.08926501       10      -0.00081201      -0.00224005       0.15479473
C        9.05613267       5.66890753      15.10030798       10       0.00119412       0.00085429       0.10955151
C        6.63468992       7.07373699      15.05274431       10      -0.00289714      -0.00444820      -0.00194097
C        7.84260364       7.77107930      15.02041060       10      -0.00122586       0.00106082       0.41221475
C        5.42030628       9.17111175      15.08926501       10      -0.00015700      -0.00024912       0.15478408
C        6.62844990       9.87314027      15.10030798       10       0.00106778      -0.00208395       0.10942731
O       -1.85317717       9.17221501      13.20312374       11       0.00506098      -0.00320324       0.00301109
