132
Lattice="12.12 0.0 0.0 -6.06 10.496227893867395 0.0 0.0 0.0 40.0" Properties=species:S:1:pos:R:3:tags:I:1:forces:R:3 energy=-1210.9542238379622 stress="0.0028842070963203048 4.176184462061187e-06 -4.473934028883025e-06 4.176184462061187e-06 0.0028886961937988342 -8.860952375587616e-07 -4.473934028883025e-06 -8.860952375587616e-07 0.002529746673607428" pbc="T T F"
C       -0.11081896       0.09511106      10.00882955        2       0.00042902      -0.00062608       0.00199344
Ti      -0.11483948       1.84562741      11.31774482        0      -0.00018945      -0.00064947       0.00042865
Ti       1.40320402       0.97064951       8.71951308        0       0.00450550      -0.00167436       0.00177763
O       -0.11252380       1.84535984       7.78232188        1      -0.00021228      -0.00063295       0.00370594
O        1.40861368       0.96836538      12.23008024        3      -0.00043130      -0.00071039       0.07866811
C       -1.62616627       2.71861317      10.01479618        2      -0.00104143       0.00059505       0.00550791
Ti      -1.62214661       4.47181178      11.29525407        0       0.00403880       0.00007450      -0.00296993
Ti      -0.10998236       3.59381771       8.72028481        0      -0.00377231      -0.00141624      -0.00058363
O       -1.62583341       4.46663500       7.78019219        1      -0.00157613       0.00191577       0.00231291
O       -0.10808456       3.59860029      12.23008024        3       0.00201854       0.00152962      -0.01450925
C       -3.14112296       5.34392270      10.00493821        2       0.00138808      -0.00091968       0.00520520
Ti      -3.14170486       7.09215853      11.30246949        0      -0.00125914      -0.00038494      -0.00455343
Ti      -1.62617536       6.21800653       8.71439199        0      -0.00144233      -0.00018033       0.00786649
O       -3.14049507       7.09250781       7.77781226        1       0.00044344       0.00126135      -0.00132689
O       -1.62709964       6.22144399      12.23008024        3      -0.00251585      -0.00140940       0.05761350
C       -4.65601272       7.96769667      10.00433788        2      -0.00165495      -0.00161125       0.00247452
Ti      -4.65529951       9.71671280      11.30149490        0      -0.00275315      -0.00238585      -0.00021436
Ti      -3.14090844       8.84276993       8.71675065        0      -0.00156288       0.00158831      -0.00257944
O       -4.65667718       9.71834034       7.77936343        1       0.00079253      -0.00306647       0.00229597
O       -3.13946779       8.84210114      12.23008024        3       0.00027758      -0.00105080       0.05843885
C        2.91931083       0.09555353      10.00495385        2      -0.00134898       0.00076863       0.00414760
Ti       2.91913463       1.84496700      11.30136874        0      -0.00061460       0.00229066      -0.00066941
Ti       4.43382254       0.97006924       8.71597534        0      -0.00282361       0.00199384      -0.00083811
O        2.91739245       1.84441480       7.77875984        1       0.00140183       0.00127803       0.00377338
O        4.43453082       0.97000354      12.23008024        3      -0.00044064      -0.00080927       0.05734902
C        1.40358724       2.71975194      10.00819556        2      -0.00035237      -0.00040919       0.00295334
Ti       1.40316533       4.46807140      11.30335751        0       0.00002369      -0.00036952      -0.00166022
Ti       2.91959736       3.59455910       8.71631965        0      -0.00289832      -0.00370764       0.00109716
O        1.40184778       4.46791434       7.77959085        1      -0.00019461      -0.00070007      -0.00080257
O        2.91906842       3.59424671      12.23008024        3       0.00409397       0.00269098       0.06117666
C       -0.11145942       5.34379728      10.00635213        2       0.00039493       0.00095009       0.00250163
Ti      -0.11143614       7.09418803      11.30102728        0      -0.00080556      -0.00036711       0.00083566
Ti       1.40434097       6.21863272       8.71631189        0       0.00334012      -0.00158349       0.00390595
O       -0.11115278       7.09235337       7.77752313        1      -0.00365602      -0.00058888       0.00020297
O        1.40362425       6.21991042      12.23008024        3       0.00150639      -0.00173515       0.04148957
C       -1.62567402       7.96775735      10.00434942        2      -0.00011059      -0.00125249       0.00117910
Ti      -1.62602575       9.71781779      11.30177672        0      -0.00027567      -0.00114961      -0.00403684
Ti      -0.11066302       8.84241867       8.71614537        0      -0.00279486       0.00123848       0.00236807
O       -1.62592896       9.71709806       7.77749055        1      -0.00078821      -0.00115890       0.00296228
O       -0.11074115       8.84267201      12.23008024        3      -0.00591265       0.00088533       0.06283672
C        5.94938090       0.09553936      10.00410973        2      -0.00017676      -0.00031808       0.00210620
Ti       5.94980336       1.84626421      11.30147978        0      -0.00157923      -0.00030776      -0.00408230
Ti       7.46420983       0.97050623       8.71434878        0      -0.00235579       0.00151756       0.00468534
O        5.95018684       1.84448450       7.77752992        1      -0.00013931      -0.00070811       0.00089563
O        7.46007210       0.97081323      12.23008024        3      -0.00237606       0.00185934       0.06030327
C        4.43352323       2.72001546      10.00340497        2      -0.00035998       0.00170555       0.00437537
Ti       4.43266045       4.46882462      11.29999562        0      -0.00058187      -0.00061631      -0.00452614
Ti       5.94879180       3.59405407       8.71453871        0       0.00086188       0.00456624      -0.00000140
O        4.43381628       4.46758921       7.77613067        1      -0.00164858       0.00563753       0.00184129
O        5.94719741       3.59360042      12.23008024        3       0.00303666       0.00128509       0.04848877
C        2.91961233       5.34435664      10.00301037        2      -0.00083595       0.00042559       0.00294650
Ti       2.91893501       7.09279147      11.30034978        0      -0.00021012       0.00079178      -0.00382242
Ti       4.43376228       6.21854598       8.71404347        0       0.00023961      -0.00138080       0.00314355
O        2.91749458       7.09437151       7.77640911        1       0.00529511      -0.00620420       0.00195410
O        4.43333887       6.21805046      12.23008024        3       0.00028405      -0.00091336       0.03994027
C        1.40399385       7.96739509      10.00398433        2       0.00007208      -0.00000318       0.00032937
Ti       1.40308165       9.71819188      11.30215453        0      -0.00116335      -0.00145305       0.00175102
Ti       2.91923497       8.84185305       8.71751257        0       0.00325237      -0.00384610       0.00236994
O        1.40516326       9.71749587       7.77813978        1      -0.00245294       0.00225362      -0.00063969
O        2.91696631       8.84054189      12.23008024        3       0.00093751      -0.00045406       0.05611064
C        8.97884166       0.09541128      10.00791502        2      -0.00176518      -0.00216812       0.00257017
Ti       8.97916597       1.83616833      11.29671498        0       0.00064024      -0.00447002      -0.00456221
Ti      10.49490763       0.96941204       8.72105588        0      -0.00012080       0.00298769      -0.00046035
O        8.98133070       1.84546025       7.77994599        1      -0.00189681      -0.00031362       0.00322419
O       10.49536350       0.95923566      12.23008024        3      -0.00026525      -0.00172501      -0.12643157
C        7.46460568       2.71877183      10.00562112        2       0.00055882      -0.00095834       0.00641026
Ti       7.45694727       4.47243096      11.28987308        0      -0.00160814       0.00106139      -0.00866082
Ti       8.97875204       3.59399711       8.72076169        0      -0.00109870      -0.00051268      -0.00008757
O        7.46655183       4.46750384       7.77808823        1      -0.00191420       0.00105655       0.00176512
O        8.96747317       3.60033065      12.23008024        3      -0.00006053       0.00064940       0.28466571
C        5.94673735       5.34462512      10.00209527        2       0.00477362      -0.00315499       0.00391653
Ti       5.94814686       7.09276662      11.30067527        0      -0.00029719       0.00091131      -0.00289729
Ti       7.46419202       6.21871970       8.71446488        0      -0.00363870      -0.00491052       0.00412023
O        5.94985544       7.09430584       7.77657983        1      -0.00354922      -0.00337648       0.00214967
O        7.46394659       6.21861088      12.23008024        3       0.00070547      -0.00314331       0.05128055
C        4.43380978       7.96551109      10.00369041        2      -0.00126762       0.00059643       0.00127883
Ti       4.43509350       9.71793706      11.30749607        0       0.00051611       0.00086220       0.00019184
Ti       5.94891422       8.84186872       8.71755964        0       0.00091843       0.00313974       0.00187065
O        4.43370227       9.71914920       7.78068949        1       0.00249499       0.00002377      -0.00066625
O        5.95095281       8.83987659      12.23008024        3       0.00035419      -0.00534407       0.07157333
C        0.23549860      -0.09216054      16.42520168       10      -0.00319835      -0.00002390      -0.02335602
C        1.44470131       0.60950746      16.43358991       10       0.00499293       0.00265977       0.00333921
C       -0.95903071       1.99857164      16.40083101       10      -0.00070115      -0.00124368       0.61892151
C        0.23286668       2.70737284      16.40846975       10      -0.00238744      -0.00320313       0.04931160
C       -2.19625647       4.13535854      16.40082546       10       0.00539640      -0.00383803       0.28328138
C       -0.98448246       4.81278066      16.40846719       10      -0.00072060      -0.00399630       0.03390821
C       -3.40707294       6.21678128      16.42520113       10       0.00307053      -0.00386897       0.00454446
C       -2.19436256       6.91263542      16.43358971       10      -0.00224832      -0.00259682       0.01596820
C       -4.61857843       8.30901093      16.42330874       10      -0.00113818       0.00073091       0.00251199
C       -3.40654793       9.00827540      16.43459840       10       0.00645058       0.00143662      -0.02791272
C        2.65507526      -0.08950507      16.43562342       10      -0.00403660       0.00219029      -0.00909452
C        3.86553594       0.61093748      16.43459831       10       0.00250374      -0.00102963      -0.02280858
C        1.44847069       2.00748851      16.42520189       10      -0.00387651       0.00051853      -0.02719428
C        2.65532498       2.71008840      16.41614176       10       0.00069414       0.00175016      -0.01458588
C        0.22907530       4.10982834      16.38234187       10      -0.00007019      -0.00417713       0.14747712
C        1.43984814       4.80884861      16.39401182       10      -0.00276916       0.00107180      -0.04708321
C       -0.98218606       6.21562164      16.42520113       10       0.00027884      -0.00436923      -0.00857403
C        0.23019691       6.91016477      16.41614186       10      -0.00336748       0.00103470      -0.01219782
C       -2.19444681       8.31069182      16.43562363       10      -0.00071432      -0.00090826      -0.01931561
C       -0.98241865       9.00830903      16.43459840       10      -0.00048868      -0.00153372      -0.01739642
C        5.07588344      -0.08957082      16.43562342       10       0.00215559       0.00264034      -0.01145283
C        6.28664419       0.60967332      16.43358991       10      -0.00077845       0.00008991       0.00738271
C        3.86558339       2.01009503      16.42330861       10      -0.00249044       0.00389900       0.00134199
C        5.07588621       2.71028398      16.41614176       10      -0.00152372       0.00006336      -0.02519954
C        2.65314759       4.10925912      16.40225826       10      -0.00183076       0.00543813      -0.03422639
C        3.86459834       4.80965561      16.39947040       10       0.00054704       0.00034416       0.00624954
C        1.44129679       6.20936731      16.40225816       10       0.00092893       0.00134531      -0.03233128
C        2.65302345       6.90913622      16.39947029       10      -0.00007093       0.00153232       0.01118096
C        0.22933185       8.30884876      16.42330874       10       0.00147445      -0.00006610      -0.00193543
C        1.44096672       9.00736777      16.41614161       10      -0.00453027       0.00086677      -0.01679115
C        7.49647830      -0.09131017      16.42520168       10       0.00494854       0.00385875      -0.01813530
C        8.71013801       0.61216340      16.40846956       10       0.00346071      -0.00154636       0.03006417
C        6.28315906       2.00779420      16.42520189       10      -0.00000143       0.00458287      -0.01116591
C        7.49809008       2.70873515      16.40846975       10       0.00178881      -0.00267507       0.01700564
C        5.07669528       4.10969803      16.40225826       10       0.00054510       0.00459134      -0.02650284
C        6.28973681       4.80976162      16.39401182       10       0.00442451      -0.00027768      -0.06441502
C        3.86502356       6.20944776      16.39639240       10       0.00210517       0.00187071      -0.03524060
C        5.07684936       6.90980108      16.39947029       10       0.00344339       0.00291795       0.00315109
C        2.65329168       8.30864308      16.40225799       10       0.00081490       0.00143788      -0.02789287
C        3.86523648       9.01027926      16.39401141       10      -0.00075237       0.00208503      -0.06176186
C        9.92529806      -0.08763895      16.38234182       10       0.00207154       0.00017361       0.16573134
C       11.14178879       0.61101774      16.40846956       10       0.00203365       0.00377597       0.02379405
C        8.69125552       2.00117311      16.40083101       10       0.00298457      -0.00182226       0.28179474
C        9.92362041       2.71365564      16.15647175       10      -0.00297807      -0.00044101      -2.13234677
C        7.50067840       4.11100259      16.38234187       10       0.00316491      -0.00203418       0.14828667
C        8.71409027       4.81440856      16.40846719       10      -0.00064380      -0.00195992       0.01821726
C        6.28897303       6.21017754      16.40225816       10       0.00141830       0.00156286      -0.02023345
C        7.50055069       6.91061653      16.41614186       10      -0.00047284       0.00203904      -0.02047755
C        5.07729788       8.30930902      16.40225799       10      -0.00301658       0.00151012      -0.03078677
C        6.28991836       9.00725122      16.41614161       10       0.00401031       0.00486164      -0.02645580
O        9.99938247       2.63115432      14.61869805       11      -0.00192092       0.00713511      -0.00116302
H        9.36155900       3.19786565      14.13084404       12       0.00421462      -0.00196332       0.00282521
