130
Lattice="12.12 0.0 0.0 -6.06 10.496227893867395 0.0 0.0 0.0 40.0" Properties=species:S:1:pos:R:3:tags:I:1:forces:R:3 energy=-1202.3097624003747 stress="0.002901997273307892 -1.2827440375716794e-08 2.4728639334167703e-07 -1.2827440375716794e-08 0.002902249223274245 2.3281363283408525e-07 2.4728639334167703e-07 2.3281363283408525e-07 0.0025269734313168053" pbc="T T F"
C       -0.00002668      -0.00002264      10.00678800        2       0.00008610       0.00016703      -0.00481715
Ti       0.00002321       1.74926933      11.30358480        0      -0.00037839      -0.00141083       0.00620585
Ti       1.51507751       0.87473112       8.71806031        0      -0.00016314      -0.00020315      -0.00156689
O        0.00004311       1.74928626       7.78012836        1      -0.00003846      -0.00001405       0.00129371
O        1.51604978       0.87521295      12.23008024        3       0.00085097       0.00105342       0.02862394
C       -1.51510759       2.62416236      10.00627072        2       0.00010269       0.00062845      -0.00422221
Ti      -1.51570025       4.37311890      11.30384952        0      -0.00040386      -0.00022876       0.00525425
Ti       0.00000096       3.49886432       8.71803938        0      -0.00022623      -0.00040833      -0.00124779
O       -1.51456718       4.37347113       7.77950963        1      -0.00010363      -0.00005752       0.00104562
O       -0.00024788       3.49877219      12.23008024        3       0.00065347       0.00071790       0.03470984
C       -3.02997654       5.24814228      10.00539031        2       0.00025959      -0.00005696      -0.00371084
Ti      -3.03069265       6.99701064      11.30367976        0      -0.00053349       0.00098315       0.00544903
Ti      -1.51509907       6.12275746       8.71755124        0      -0.00038210      -0.00007576      -0.00097714
O       -3.02971816       6.99782847       7.77942200        1      -0.00008254      -0.00004486       0.00116383
O       -1.51541519       6.12277001      12.23008024        3       0.00045791      -0.00010183       0.03123067
C       -4.54495482       7.87207587      10.00614586        2       0.00013550      -0.00042491      -0.00435758
Ti      -4.54507883       9.62160462      11.30369783        0      -0.00056618      -0.00032298       0.00656377
Ti      -3.02991239       8.74681119       8.71795475        0      -0.00035599       0.00015030      -0.00153748
O       -4.54507179       9.62168536       7.78007669        1       0.00000963       0.00005110       0.00134832
O       -3.02996463       8.74637248      12.23008024        3       0.00077307      -0.00022616       0.03438471
C        3.03013292       0.00003488      10.00632256        2       0.00054132       0.00042944      -0.00406184
Ti       3.03057902       1.74977497      11.30397325        0      -0.00108700      -0.00180956       0.00513263
Ti       4.54502104       0.87475813       8.71716433        0       0.00004888       0.00004701      -0.00117120
O        3.02952862       1.74911401       7.77949418        1       0.00020209       0.00010305       0.00110714
O        4.54610758       0.87599246      12.23008024        3       0.00037693       0.00096951       0.03778928
C        1.51509057       2.62415362      10.00634290        2       0.00057341       0.00078127      -0.00360005
Ti       1.51572527       4.37317040      11.30401260        0      -0.00095048      -0.00060792       0.00427847
Ti       3.03002749       3.49874399       8.71713473        0       0.00023307      -0.00022242      -0.00077242
O        1.51464364       4.37343499       7.77958440        1       0.00016941      -0.00000596       0.00066456
O        3.03173689       3.49912965      12.23008024        3       0.00059079       0.00065185       0.03929934
C        0.00001430       5.24813911      10.00632780        2       0.00049164       0.00011272      -0.00300132
Ti       0.00008867       6.99750516      11.30272701        0      -0.00112176       0.00051248       0.00447841
Ti       1.51508320       6.12275586       8.71752974        0       0.00011696       0.00011127      -0.00066021
O        0.00000650       6.99748227       7.77958390        1       0.00009765       0.00005930       0.00085780
O        1.51575231       6.12274205      12.23008024        3       0.00018549      -0.00036792       0.02914714
C       -1.51498872       7.87222587      10.00622832        2       0.00047539      -0.00012243      -0.00359898
Ti      -1.51490230       9.62227707      11.30378951        0      -0.00106394      -0.00054963       0.00518618
Ti      -0.00000567       8.74694384       8.71749445        0       0.00000094       0.00034809      -0.00096034
O       -1.51514431       9.62128826       7.77950959        1       0.00006219       0.00018558       0.00112521
O        0.00011135       8.74768253      12.23008024        3       0.00028678      -0.00006795       0.02516525
C        6.05999605       0.00003790      10.00550900        2      -0.00008394       0.00002816      -0.00357279
Ti       6.06001557       1.75057500      11.30218700        0       0.00065172      -0.00074374       0.00554993
Ti       7.57497815       0.87479835       8.71703954        0       0.00018019       0.00019645      -0.00145496
O        6.05996359       1.74891163       7.77855274        1       0.00002529       0.00014150       0.00167983
O        7.57411951       0.87606182      12.23008024        3      -0.00065549       0.00045133       0.03758628
C        4.54513366       2.62412307      10.00467456        2      -0.00008539       0.00039069      -0.00299976
Ti       4.54595556       4.37297748      11.30203040        0       0.00061390       0.00046030       0.00501338
Ti       6.06002017       3.49878923       8.71540118        0       0.00026129      -0.00000671      -0.00037894
O        4.54455098       4.37360737       7.77853627        1       0.00019751      -0.00006079       0.00137478
O        6.06015754       3.49891369      12.23008024        3      -0.00056970       0.00010797       0.01262646
C        3.03002057       5.24811544      10.00545172        2      -0.00017802      -0.00016663      -0.00270449
Ti       3.03079899       6.99703684      11.30343355        0       0.00074199       0.00140682       0.00481832
Ti       4.54507067       6.12275836       8.71686978        0       0.00041162       0.00016979      -0.00095559
O        3.02976218       6.99777933       7.77941596        1       0.00013150      -0.00003343       0.00092681
O        4.54587810       6.12141846      12.23008024        3      -0.00057895      -0.00090663       0.03943419
C        1.51504280       7.87223531      10.00610365        2      -0.00008994      -0.00047932      -0.00327181
Ti       1.51500215       9.62236020      11.30339069        0       0.00073247       0.00031743       0.00542939
Ti       3.02993388       8.74682422       8.71784535        0       0.00033806       0.00038780      -0.00145196
O        1.51513437       9.62126762       7.77942430        1       0.00003417       0.00017213       0.00129026
O        3.02955252       8.74646817      12.23008024        3      -0.00065893      -0.00091521       0.03263592
C        9.08990661       0.00006688      10.00626459        2      -0.00036993      -0.00009290      -0.00432086
Ti       9.08935352       1.74984959      11.30391812        0       0.00089770      -0.00056412       0.00622687
Ti      10.60492455       0.87473135       8.71808507        0       0.00002013      -0.00000130      -0.00188854
O        9.09047394       1.74909247       7.77937369        1      -0.00009331       0.00006857       0.00159473
O       10.60405293       0.87525785      12.23008024        3      -0.00036126       0.00077284       0.03223514
C        7.57494369       2.62411210      10.00457048        2      -0.00040062       0.00016192      -0.00368010
Ti       7.57411906       4.37300710      11.30188054        0       0.00090479       0.00058217       0.00575720
Ti       9.08999024       3.49874931       8.71698582        0      -0.00009980      -0.00012408      -0.00131206
O        7.57540434       4.37362441       7.77847494        1      -0.00013339      -0.00004818       0.00177508
O        9.08826866       3.49917423      12.23008024        3      -0.00055535       0.00044486       0.04053951
C        6.06002486       5.24809357      10.00442766        2      -0.00040208      -0.00030565      -0.00328067
Ti       6.06004008       6.99665946      11.30379209        0       0.00101370       0.00157847       0.00572769
Ti       7.57496823       6.12280264       8.71684132        0       0.00000928       0.00004102      -0.00118970
O        6.05997631       6.99806326       7.77928473        1       0.00004303      -0.00012151       0.00136951
O        7.57439990       6.12133371      12.23008024        3      -0.00035894      -0.00100752       0.03987600
C        4.54500942       7.87211135      10.00617867        2      -0.00037186      -0.00065178      -0.00402093
Ti       4.54506561       9.62156053      11.30392647        0       0.00114330       0.00054266       0.00631742
Ti       6.06000601       8.74679051       8.71805051        0       0.00007033       0.00015857      -0.00183982
O        4.54511662       9.62166078       7.78004297        1      -0.00001015       0.00006174       0.00147412
O        6.06010208       8.74587631      12.23008024        3      -0.00010763      -0.00058396       0.03359533
C        0.04497957       0.06750524      16.30902761       10      -0.00463329      -0.00319716      -0.01440846
C        1.25704327       0.76725052      16.30902761       10       0.00338272       0.00130828      -0.01552905
C       -1.16708784       2.16688040      16.30902761       10       0.00064253      -0.00671497      -0.01065359
C        0.04493562       2.86661407      16.30902761       10       0.00049491       0.00146117      -0.00978206
C       -2.37882215       4.26603570      16.30902761       10       0.00024535      -0.00372426      -0.00601478
C       -1.16685797       4.96575234      16.30902761       10       0.00109467       0.00122125       0.00154143
C       -3.59073934       6.36545319      16.30902761       10      -0.00047185      -0.00467958      -0.00798866
C       -2.37865497       7.06501823      16.30902761       10      -0.00146772       0.00345317       0.00507036
C       -4.80292144       8.46451086      16.30902761       10      -0.00281479      -0.00220469      -0.00950558
C       -3.59090858       9.16421270      16.30902761       10       0.00502742      -0.00137956      -0.00872933
C        2.46913787       0.06746099      16.30902761       10      -0.00236690       0.00248083      -0.01445658
C        3.68109852       0.76720399      16.30902761       10      -0.00303563      -0.00372428      -0.00637710
C        1.25690004       2.16682108      16.30902761       10       0.00009275      -0.00393036      -0.01361599
C        2.46885624       2.86646901      16.30902761       10      -0.00135439       0.00148695      -0.00763725
C        0.04502636       4.26605357      16.30902761       10      -0.00149754      -0.00181699      -0.00598049
C        1.25694037       4.96569238      16.30902761       10      -0.00052527       0.00155597       0.00025718
C       -1.16671791       6.36521323      16.30902761       10      -0.00660120      -0.00271465      -0.01898523
C        0.04519641       7.06492623      16.30902761       10      -0.00205042       0.00097626       0.00079881
C       -2.37886475       8.46443892      16.30902761       10      -0.00183031       0.00125565      -0.00733788
C       -1.16694478       9.16415530      16.30902761       10       0.00033593      -0.00718098       0.00212104
C        4.89301682       0.06728548      16.30902761       10      -0.00121258       0.00711158      -0.00669561
C        6.10498884       0.76713875      16.30902761       10      -0.00313770      -0.00408536      -0.01568212
C        3.68090366       2.16675758      16.30902761       10       0.00250274      -0.00057534      -0.00944605
C        4.89282710       2.86662092      16.30902761       10       0.00068629      -0.00193805      -0.03792546
C        2.46879262       4.26593047      16.30902761       10       0.00259355       0.00092969      -0.00452026
C        3.68076634       4.96585795      16.30902761       10      -0.00265038      -0.00093905      -0.01958756
C        1.25707469       6.36506456      16.30902761       10      -0.00086909       0.00183219      -0.01958237
C        2.46882781       7.06498469      16.30902761       10      -0.00262166       0.00054936       0.00723833
C        0.04488552       8.46437054      16.30902761       10       0.00297469       0.00399164      -0.01968407
C        1.25674578       9.16410528      16.30902761       10       0.00113431      -0.00720092       0.00618362
C        7.31696843       0.06727774      16.30902761       10      -0.00055223       0.00714962      -0.00946788
C        8.52889531       0.76717382      16.30902761       10       0.00182889      -0.00144246      -0.00566579
C        6.10480888       2.16680734      16.30902761       10       0.00188320      -0.00104976      -0.01426666
C        7.31682911       2.86649235      16.30902761       10       0.00649554       0.00243530      -0.03777591
C        4.89290246       4.26617012      16.30902761       10       0.00046673      -0.00154491      -0.01187445
C        6.10495746       4.96594545      16.30902761       10       0.00147745       0.00181210      -0.03846461
C        3.68085672       6.36537294      16.30902761       10       0.00117519      -0.00164445      -0.00947774
C        4.89289123       7.06503510      16.30902761       10      -0.00014102       0.00402757      -0.00917986
C        2.46868976       8.46437072      16.30902761       10       0.00280480       0.00361052      -0.01018596
C        3.68066385       9.16417352      16.30902761       10       0.00238689      -0.00258068      -0.00753474
C        9.74085727       0.06742839      16.30902761       10      -0.00527840       0.00129677      -0.01301083
C       10.95281020       0.76725707      16.30902761       10       0.00286179       0.00197982      -0.01659291
C        8.52882998       2.16678820      16.30902761       10       0.00131681      -0.00357975      -0.00983052
C        9.74096946       2.86648396      16.30902761       10       0.00041543       0.00444776      -0.00932056
C        7.31703421       4.26612670      16.30902761       10      -0.00121207      -0.00144321      -0.01189589
C        8.52920297       4.96583395      16.30902761       10      -0.00039089       0.00356753      -0.02520356
C        6.10505741       6.36536496      16.30902761       10      -0.00059226      -0.00162106      -0.01133122
C        7.31720721       7.06504628      16.30902761       10      -0.00072151       0.00673156      -0.01129728
C        4.89279362       8.46445584      16.30902761       10      -0.00354442      -0.00145295      -0.01161297
C        6.10484779       9.16409112      16.30902761       10       0.00467095       0.00313011      -0.01686861
