130
Lattice="12.12 0.0 0.0 -6.06 10.496227893867395 0.0 0.0 0.0 40.0" Properties=species:S:1:pos:R:3:tags:I:1:forces:R:3 energy=-1200.1127445402874 stress="0.0028475760915206974 2.1854896744803256e-08 9.979873052280331e-08 2.1854896744803256e-08 0.0028475292813809287 1.56048562743677e-07 9.979873052280331e-08 1.56048562743677e-07 0.0019199876751951738" pbc="T T F"
C        0.00000383       0.00001525      10.00092028        2       0.00002873       0.00002255       0.00084908
Ti      -0.00000074       1.74936699      11.29102504        0       0.00002312       0.00003413       0.00062514
Ti       1.51499782       0.87468649       8.71009156        0      -0.00001452       0.00000158       0.00101613
O       -0.00000410       1.74938676       7.77057293        1       0.00000990       0.00003256       0.00119868
O        1.51507226       0.87473580      12.23008024        3       0.00007427       0.00006851       0.06070346
C       -1.51503580       2.62409074      10.00094227        2      -0.00001370       0.00002845       0.00071878
Ti      -1.51507250       4.37340476      11.29100187        0      -0.00005564      -0.00000742       0.00061705
Ti       0.00000477       3.49875914       8.71010250        0       0.00000079       0.00003112       0.00106019
O       -1.51496036       4.37345001       7.77054936        1       0.00008893       0.00007545       0.00111098
O        0.00007256       3.49889601      12.23008024        3      -0.00001520       0.00000041       0.08432836
C       -3.03001784       5.24811958      10.00086367        2      -0.00004077      -0.00001432       0.00063379
Ti      -3.03006185       6.99746923      11.29100280        0      -0.00004946      -0.00001412       0.00061673
Ti      -1.51498751       6.12280890       8.71011894        0       0.00002030       0.00002809       0.00107629
O       -3.02995951       6.99751244       7.77054571        1       0.00010197       0.00005576       0.00110443
O       -1.51513675       6.12274370      12.23008024        3      -0.00003070      -0.00000686       0.07314415
C       -4.54499683       7.87213133      10.00093430        2       0.00000708       0.00000704       0.00071858
Ti      -4.54503248       9.62157104      11.29101540        0       0.00003678       0.00001792       0.00062979
Ti      -3.02998602       8.74685821       8.71009888        0       0.00001653       0.00000519       0.00106003
O       -4.54499401       9.62153582       7.77056924        1       0.00002443       0.00001421       0.00119127
O       -3.02990109       8.74695572      12.23008024        3       0.00001859      -0.00000821       0.08452762
C        3.03002659       0.00002957      10.00091505        2       0.00002392       0.00002600       0.00074788
Ti       3.03006227       1.74940724      11.29093444        0       0.00006597       0.00005309       0.00051203
Ti       4.54500290       0.87468489       8.71000291        0      -0.00001646      -0.00002070       0.00078445
O        3.02996419       1.74935589       7.77051030        1      -0.00006875      -0.00003524       0.00099039
O        4.54530863       0.87518260      12.23008024        3       0.00002734       0.00006988       0.07791829
C        1.51503376       2.62407885      10.00092929        2       0.00002795       0.00003790       0.00073041
Ti       1.51509687       4.37339453      11.29101645        0       0.00005999      -0.00000165       0.00060563
Ti       3.03000259       3.49874581       8.71000407        0      -0.00002884       0.00000973       0.00077280
O        1.51496456       4.37345545       7.77055805        1      -0.00007852       0.00007759       0.00111908
O        3.03065337       3.49877372      12.23008024        3       0.00005968       0.00005001       0.07795177
C       -0.00000848       5.24808629      10.00098306        2       0.00001754       0.00002520       0.00084041
Ti       0.00000237       6.99748626      11.29111271        0       0.00002468       0.00001489       0.00069493
Ti       1.51499209       6.12280742       8.71013826        0      -0.00000098       0.00002359       0.00108086
O        0.00000673       6.99749182       7.77059249        1       0.00001189       0.00001187       0.00124108
O        1.51511177       6.12275728      12.23008024        3       0.00007489      -0.00000205       0.06710051
C       -1.51504087       7.87217629      10.00098993        2       0.00003182       0.00001456       0.00083247
Ti      -1.51499482       9.62164126      11.29102305        0       0.00002205       0.00006881       0.00062242
Ti       0.00000108       8.74685098       8.71014376        0       0.00000822      -0.00000581       0.00109869
O       -1.51499411       9.62149617       7.77055572        1       0.00002392      -0.00009160       0.00112407
O        0.00000931       8.74694091      12.23008024        3       0.00003019       0.00007926       0.06175232
C        6.06001149       0.00003054      10.00087923        2       0.00001109       0.00005911       0.00065612
Ti       6.05998968       1.74943068      11.29082949        0       0.00001507       0.00008120       0.00039699
Ti       7.57499585       0.87468347       8.71000030        0       0.00002052      -0.00001580       0.00078851
O        6.05999821       1.74930865       7.77044217        1       0.00000804      -0.00009362       0.00077605
O        7.57467497       0.87526351      12.23008024        3       0.00000144       0.00001712       0.07799006
C        4.54500843       2.62406099      10.00066911        2       0.00003731       0.00003440       0.00045981
Ti       4.54506197       4.37338527      11.29081431        0       0.00008268       0.00000104       0.00037832
Ti       6.05999774       3.49873859       8.70990758        0       0.00000209       0.00000468       0.00047374
O        4.54494324       4.37345735       7.77044288        1      -0.00007699       0.00005965       0.00076315
O        6.06002236       3.49877208      12.23008024        3      -0.00000385       0.00001850       0.06114427
C        3.03003444       5.24812103      10.00088023        2       0.00004792      -0.00000224       0.00064420
Ti       3.03007980       6.99746650      11.29102675        0       0.00009545       0.00001488       0.00061494
Ti       4.54499530       6.12279761       8.70999489        0      -0.00000594       0.00003371       0.00076821
O        3.02995690       6.99751409       7.77055782        1      -0.00008425       0.00006197       0.00111866
O        4.54538914       6.12220367      12.23008024        3       0.00003090       0.00001881       0.07679278
C        1.51504592       7.87218966      10.00101333        2       0.00002526       0.00000962       0.00084258
Ti       1.51500977       9.62163482      11.29103377        0       0.00004949       0.00007974       0.00062376
Ti       3.02998838       8.74685467       8.71011267        0       0.00000628       0.00001056       0.00107301
O        1.51500068       9.62149223       7.77055862        1       0.00000066      -0.00008646       0.00113353
O        3.03004676       8.74694950      12.23008024        3       0.00004746       0.00004614       0.08436007
C        9.08997117       0.00004083      10.00092849        2       0.00000967       0.00004144       0.00073163
Ti       9.08992693       1.74942222      11.29091894        0      -0.00004894       0.00006065       0.00052382
Ti      10.60500384       0.87468406       8.71008822        0       0.00001870       0.00000979       0.00102452
O        9.09004355       1.74935210       7.77050835        1       0.00007585      -0.00003373       0.00099119
O       10.60487789       0.87476409      12.23008024        3      -0.00002154       0.00006278       0.06723414
C        7.57498680       2.62406879      10.00064712        2      -0.00002628       0.00003256       0.00048407
Ti       7.57492619       4.37339162      11.29078974        0      -0.00006440      -0.00000822       0.00038470
Ti       9.08999687       3.49874800       8.70999182        0       0.00003618       0.00001475       0.00077391
O        7.57505270       4.37345759       7.77043545        1       0.00007617       0.00005001       0.00075979
O        9.08928168       3.49881456      12.23008024        3      -0.00002579       0.00001375       0.07645764
C        6.06000320       5.24810057      10.00062853        2       0.00000884      -0.00002274       0.00046100
Ti       6.06000549       6.99740821      11.29090156        0       0.00002060      -0.00002729       0.00051521
Ti       7.57500410       6.12279707       8.70998602        0       0.00001966       0.00003643       0.00076107
O        6.06000034       6.99754125       7.77050524        1       0.00000200       0.00010205       0.00097571
O        7.57466466       6.12218381      12.23008024        3      -0.00000315       0.00000293       0.07513531
C        4.54501411       7.87212970      10.00093481        2       0.00001831       0.00000667       0.00072045
Ti       4.54505988       9.62158449      11.29101738        0       0.00006044       0.00005443       0.00062282
Ti       6.05999906       8.74686563       8.71008070        0       0.00000784       0.00002492       0.00101536
O        4.54499040       9.62153847       7.77057326        1      -0.00000719       0.00001389       0.00120252
O        6.06000973       8.74669131      12.23008024        3       0.00001026      -0.00002533       0.07194501
C        0.04502898       0.06752440      17.73008024       10       0.00037099       0.00022874      -0.03994572
C        1.25706497       0.76730393      17.73008024       10      -0.00319520      -0.00135638      -0.01481380
C       -1.16698913       2.16677126      17.73008024       10       0.00015637       0.00198134      -0.02724404
C        0.04498541       2.86653585      17.73008024       10      -0.00013064      -0.00125118      -0.01531933
C       -2.37897806       4.26605957      17.73008024       10      -0.00101212       0.00050633      -0.02523339
C       -1.16698582       4.96575070      17.73008024       10       0.00081678      -0.00054064      -0.02766723
C       -3.59097767       6.36526256      17.73008024       10      -0.00098367       0.00153769      -0.02389934
C       -2.37903980       7.06507067      17.73008024       10       0.00079963      -0.00198360      -0.02683419
C       -4.80302532       8.46453286      17.73008024       10       0.00118283       0.00066571      -0.02661516
C       -3.59102903       9.16427592      17.73008024       10      -0.00077278      -0.00044507      -0.01552941
C        2.46904502       0.06750774      17.73008024       10       0.00148603      -0.00002258      -0.03056779
C        3.68103945       0.76729244      17.73008024       10      -0.00224134      -0.00044390      -0.02093321
C        1.25696802       2.16681326      17.73008024       10       0.00200629       0.00156524      -0.03036385
C        2.46900629       2.86654850      17.73008024       10      -0.00212043       0.00009775      -0.01953322
C        0.04500034       4.26601448      17.73008024       10      -0.00087856       0.00015252      -0.01583143
C        1.25697051       4.96573288      17.73008024       10      -0.00100993       0.00151410      -0.02869376
C       -1.16701537       6.36526275      17.73008024       10      -0.00047062       0.00109201      -0.01520839
C        0.04496147       7.06499910      17.73008024       10       0.00111287      -0.00005778      -0.04040462
C       -2.37905833       8.46451113      17.73008024       10       0.00076970       0.00076697      -0.01554797
C       -1.16707918       9.16424048      17.73008024       10       0.00039586       0.00151678      -0.03058563
C        4.89303319       0.06752807      17.73008024       10      -0.00000577      -0.00132693      -0.02130732
C        6.10501769       0.76729821      17.73008024       10       0.00073799      -0.00020051      -0.02181083
C        3.68097991       2.16678566      17.73008024       10       0.00137168       0.00001347      -0.02180546
C        4.89295056       2.86650529      17.73008024       10       0.00065964       0.00077842      -0.03601777
C        2.46897055       4.26609367      17.73008024       10       0.00092452      -0.00237481      -0.02396274
C        3.68099507       4.96576157      17.73008024       10      -0.00096305       0.00231436      -0.02220450
C        1.25698402       6.36528054      17.73008024       10      -0.00070672      -0.00083250      -0.01497135
C        2.46901003       7.06504243      17.73008024       10      -0.00140445      -0.00007453      -0.02772975
C        0.04497027       8.46450051      17.73008024       10      -0.00078178       0.00013153      -0.01482198
C        1.25699717       9.16427060      17.73008024       10      -0.00002834       0.00124391      -0.03033403
C        7.31703061       0.06756405      17.73008024       10      -0.00044894      -0.00159565      -0.01954762
C        8.52908296       0.76729385      17.73008024       10      -0.00081111      -0.00082295      -0.02422909
C        6.10501989       2.16675296      17.73008024       10      -0.00114686      -0.00001006      -0.03643669
C        7.31705120       2.86651903      17.73008024       10       0.00044743      -0.00113465      -0.03673309
C        4.89293875       4.26606173      17.73008024       10       0.00098364      -0.00157101      -0.03701377
C        6.10497989       4.96581209      17.73008024       10       0.00084150      -0.00021453      -0.03781647
C        3.68097104       6.36527926      17.73008024       10       0.00207314      -0.00016157      -0.02067366
C        4.89303375       7.06505973      17.73008024       10      -0.00205483      -0.00163976      -0.02520022
C        2.46892564       8.46450713      17.73008024       10       0.00220060       0.00038291      -0.01528647
C        3.68095308       9.16424261      17.73008024       10      -0.00152394      -0.00004285      -0.01585914
C        9.74100741       0.06746877      17.73008024       10       0.00071542       0.00038050      -0.02833142
C       10.95304655       0.76726635      17.73008024       10      -0.00123523      -0.00072723      -0.01500402
C        8.52903109       2.16676014      17.73008024       10      -0.00084609       0.00192652      -0.02230785
C        9.74100534       2.86654184      17.73008024       10       0.00094994      -0.00157446      -0.02092585
C        7.31704136       4.26604152      17.73008024       10      -0.00086027       0.00049099      -0.03838251
C        8.52898834       4.96578268      17.73008024       10       0.00097949      -0.00054703      -0.02201916
C        6.10500179       6.36526407      17.73008024       10       0.00008388       0.00118344      -0.02215700
C        7.31698388       7.06506876      17.73008024       10      -0.00019563      -0.00205036      -0.02349781
C        4.89288041       8.46450915      17.73008024       10       0.00315528       0.00128547      -0.02762026
C        6.10495149       9.16427689      17.73008024       10      -0.00041895      -0.00029432      -0.01519037
