132
Lattice="12.12 0.0 0.0 -6.06 10.496227893867395 0.0 0.0 0.0 40.0" Properties=species:S:1:pos:R:3:tags:I:1:forces:R:3 energy=-1209.9931366783032 stress="0.0028169591786303483 2.286180112061979e-06 -5.5545886900973e-06 2.286180112061979e-06 0.002818004386314174 2.97667787550216e-06 -5.5545886900973e-06 2.97667787550216e-06 0.002213865651104869" pbc="T T F"
C        0.00014844      -0.00092213      10.00262290        2       0.00050617       0.00037852       0.00112530
Ti      -0.00462593       1.75128374      11.31569327        0       0.00306110      -0.00022928      -0.00051026
Ti       1.51383951       0.87505065       8.69437478        0      -0.00141112       0.00064171       0.00102982
O       -0.00324690       1.75076242       7.77483888        1      -0.00033373      -0.00019743      -0.00078376
O        1.51250470       0.87616201      12.23159545        3      -0.00040817       0.00012047      -0.02317799
C       -1.51675583       2.62468092      10.01568033        2      -0.00044933      -0.00027018       0.00077339
Ti      -1.51780666       4.37010588      11.30242954        0       0.00012721       0.00110456       0.00192631
Ti       0.00147681       3.50109219       8.69298438        0       0.00092646      -0.00096694       0.00196174
O       -1.51650039       4.37096281       7.77299150        1      -0.00038826      -0.00048159      -0.00013149
O        0.00367484       3.50260354      12.23159545        3      -0.00121532       0.00090284      -0.06815914
C       -3.03179451       5.24915058      10.00376353        2       0.00049000      -0.00028662       0.00170481
Ti      -3.03145784       6.99636853      11.30274624        0      -0.00009446      -0.00028905       0.00032890
Ti      -1.51341731       6.12282516       8.69192609        0      -0.00048161       0.00070848      -0.00007244
O       -3.02956122       6.99606211       7.76913506        1      -0.00117656       0.00023398      -0.00119370
O       -1.51534008       6.12106746      12.23159545        3      -0.00108705       0.00025142      -0.01677053
C       -4.54485919       7.87208066      10.00010962        2      -0.00038097      -0.00030320       0.00052237
Ti      -4.54570107       9.62276476      11.30164680        0       0.00061662       0.00120364      -0.00005646
Ti      -3.03002855       8.74648682       8.68909408        0      -0.00221985      -0.00090059       0.00235929
O       -4.54519118       9.62275665       7.76900264        1      -0.00099260      -0.00010849      -0.00082812
O       -3.03096969       8.74632882      12.23159545        3       0.00046970       0.00016186      -0.01972950
C        3.03080336      -0.00063640      10.00191692        2      -0.00062350       0.00044010       0.00108469
Ti       3.02897904       1.74867120      11.30293425        0      -0.00126323      -0.00066176       0.00018717
Ti       4.54487100       0.87422801       8.68964816        0      -0.00045744       0.00203824       0.00170383
O        3.02866950       1.74805001       7.76905739        1      -0.00063862       0.00129783      -0.00121029
O        4.54547549       0.87551284      12.23159545        3       0.00041749      -0.00024718       0.02522191
C        1.51579344       2.62408805      10.00183314        2      -0.00022906      -0.00015528       0.00101929
Ti       1.51574840       4.37355204      11.30821280        0      -0.00043933       0.00127847      -0.00054632
Ti       3.02916196       3.49696776       8.69287488        0       0.00033875       0.00079321       0.00109789
O        1.51294819       4.37229107       7.76971125        1       0.00077858       0.00121692      -0.00104147
O        3.03095748       3.49823359      12.23159545        3      -0.00098662       0.00007419       0.02913058
C        0.00176777       5.24999230      10.00003022        2      -0.00119713       0.00069982       0.00099762
Ti      -0.00325462       6.99605008      11.30592112        0      -0.00125065      -0.00105049      -0.00038293
Ti       1.51482775       6.12327246       8.69205083        0      -0.00084595       0.00092764       0.00180843
O       -0.00052982       6.99709424       7.76857354        1      -0.00163629      -0.00020678      -0.00224031
O        1.51449580       6.12343721      12.23159545        3      -0.00084404      -0.00033005      -0.01900769
C       -1.51550659       7.87244245      10.00068090        2      -0.00054982       0.00014751      -0.00010717
Ti      -1.51680283       9.62241584      11.30377592        0       0.00060236       0.00021194       0.00085575
Ti      -0.00017281       8.74664713       8.69209471        0      -0.00110072       0.00076489      -0.00004219
O       -1.51514702       9.62131786       7.76794842        1      -0.00162417       0.00072263      -0.00242311
O       -0.00116871       8.74686600      12.23159545        3      -0.00172683       0.00140660      -0.01863516
C        6.05894453      -0.00084486      10.00072676        2      -0.00099729       0.00047405      -0.00040921
Ti       6.06147203       1.75140704      11.30447738        0      -0.00018078       0.00108822       0.00036843
Ti       7.57504155       0.87283488       8.69244828        0      -0.00131021      -0.00050458       0.00029180
O        6.06127342       1.74902656       7.76979272        1      -0.00109956       0.00067778      -0.00053678
O        7.57474629       0.87398730      12.23159545        3      -0.00066312       0.00071472       0.01757947
C        4.54444075       2.62366818      10.00024139        2      -0.00048725       0.00044853       0.00044456
Ti       4.54552008       4.37259155      11.30436571        0       0.00134233       0.00069294       0.00160988
Ti       6.05747553       3.49955140       8.68946331        0      -0.00132807      -0.00035835      -0.00064527
O        4.54356111       4.37235818       7.76682155        1      -0.00125286       0.00215028      -0.00132502
O        6.05870436       3.50003124      12.23159545        3       0.00036659       0.00131832       0.03020249
C        3.02939300       5.24797600      10.00145863        2       0.00033227       0.00033439       0.00046797
Ti       3.02942390       6.99689692      11.30465695        0       0.00029234       0.00059560       0.00060958
Ti       4.54365522       6.12313073       8.68803659        0      -0.00097758       0.00040063       0.00192273
O        3.02835885       6.99824026       7.76686546        1      -0.00016967      -0.00019219      -0.00195277
O        4.54471476       6.12251193      12.23159545        3      -0.00071220       0.00021787       0.01505176
C        1.51431749       7.87199670      10.00134944        2      -0.00178531       0.00090812       0.00078102
Ti       1.51312870       9.62363816      11.30750945        0       0.00073792       0.00142360      -0.00047760
Ti       3.02928392       8.74588745       8.69244112        0      -0.00165009       0.00090610       0.00217445
O        1.51505598       9.62189811       7.76933247        1      -0.00083429       0.00173893      -0.00141472
O        3.02808435       8.74502311      12.23159545        3       0.00002163      -0.00016938      -0.02153977
C        9.08897088      -0.00296077      10.00167087        2      -0.00114041       0.00046416       0.00108786
Ti       9.09245826       1.74996904      11.30060662        0      -0.00187994      -0.00027082       0.00305726
Ti      10.60360408       0.87246126       8.69323471        0       0.00099337      -0.00040693       0.00258797
O        9.09068761       1.75094968       7.77363001        1       0.00009115       0.00047338      -0.00083897
O       10.60394616       0.86785558      12.23159545        3      -0.00107081      -0.00031654      -0.09538908
C        7.57244363       2.62432839      10.00508523        2       0.00003665      -0.00031210       0.00145898
Ti       7.57215117       4.37550761      11.28991987        0      -0.00047048      -0.00060598       0.00075891
Ti       9.08781770       3.49974752       8.69498558        0       0.00108588      -0.00077137      -0.00035714
O        7.57585403       4.37216408       7.76950535        1       0.00019053      -0.00022317      -0.00092470
O        9.07873820       3.50361464      12.23159545        3      -0.00282892       0.00202008       0.00994979
C        6.05443226       5.25081943       9.99591255        2       0.00095730       0.00004752       0.00165645
Ti       6.06051373       6.99667457      11.30436876        0      -0.00027499      -0.00162718       0.00093334
Ti       7.57297346       6.12356115       8.68903454        0      -0.00019407       0.00083103      -0.00030023
O        6.05966800       6.99872855       7.76697706        1      -0.00170537      -0.00019698      -0.00142161
O        7.57331623       6.12329421      12.23159545        3      -0.00026089      -0.00145213       0.04389465
C        4.54410695       7.87158216      10.00138649        2       0.00055953      -0.00010444       0.00093393
Ti       4.54475246       9.62010290      11.30967491        0      -0.00166765      -0.00101297      -0.00156922
Ti       6.06067649       8.74763593       8.69298569        0      -0.00029466      -0.00033740       0.00167439
O        4.54441973       9.62333388       7.77068607        1      -0.00029199       0.00006241      -0.00058465
O        6.06052287       8.74519395      12.23159545        3       0.00008973       0.00044563      -0.01245808
C        0.07062220       0.05285848      16.85303268       10       0.00368646       0.00542581      -0.01383519
C        1.27780405       0.75661051      16.86142091       10      -0.00133104       0.00083405      -0.00508079
C       -1.11782519       2.13920332      16.82866201       10       0.00130606      -0.00040048       0.63748504
C        0.06816152       2.85464263      16.83630075       10      -0.00266821       0.00351674       0.01573083
C       -2.36287322       4.29317455      16.82865646       10       0.00015432      -0.00090588       0.40080844
C       -1.15122702       4.96365587      16.83629819       10      -0.00200878       0.00071103       0.03861852
C       -3.57589767       6.36955342      16.85303213       10       0.00551714      -0.00311056       0.00488893
C       -2.36270831       7.06114478      16.86142071       10       0.00272238       0.00095044       0.01623793
C       -4.78580272       8.45697978      16.85113974       10       0.00029725       0.00060877       0.01338667
C       -3.57355792       9.15622628      16.86242940       10      -0.00611845      -0.00330641      -0.00034918
C        2.48858331       0.05751380      16.86345442       10      -0.00023979       0.00045574       0.01284966
C        3.69767269       0.75844345      16.86242931       10       0.00166173      -0.00004289       0.00254593
C        1.28357068       2.15348398      16.85303289       10      -0.00244177       0.00261529       0.00429014
C        2.48811186       2.85850719      16.84397276       10       0.00010648      -0.00229865       0.00739882
C        0.06540853       4.25948713      16.81017287       10      -0.00024968       0.00211683       0.01656728
C        1.27228097       4.95755020      16.82184282       10       0.00405848      -0.00556050      -0.01265378
C       -1.15131836       6.36732143      16.85303213       10       0.00213027      -0.00008650       0.00814523
C        0.06175164       7.05924763      16.84397286       10       0.00190393      -0.00040541      -0.01808192
C       -2.36275536       8.45989492      16.86345463       10      -0.00027107       0.00319440       0.02376954
C       -1.15142441       9.15658018      16.86242940       10       0.00085204       0.00394832      -0.00443520
C        4.90601486       0.05777158      16.86345442       10       0.00187905       0.00282624       0.01887041
C        6.11727543       0.75730301      16.86142091       10       0.00391044      -0.00551775       0.03036106
C        3.69700578       2.15761307      16.85113961       10       0.00177270       0.00035199       0.01698452
C        4.90622260       2.85867057      16.84397276       10       0.00279063       0.00041190       0.02705039
C        2.48559360       4.25680115      16.83008926       10       0.00328840      -0.00419547       0.00805241
C        3.69733045       4.95796912      16.82730140       10      -0.00096730       0.00030838       0.01811708
C        1.27216196       6.35826428      16.83008916       10       0.00050136      -0.00544782       0.00118959
C        2.48523737       7.05704271      16.82730129       10      -0.00122671      -0.00214922      -0.00453162
C        0.05987977       8.45756070      16.85113974       10       0.00100761       0.00206666       0.00275678
C        1.27135093       9.15508040      16.84397261       10       0.00436910      -0.00459617       0.00299942
C        7.32401895       0.05523982      16.85303268       10       0.00196587      -0.00524293       0.01478633
C        8.53950821       0.75674599      16.83630056       10      -0.00079591      -0.00046274       0.03749527
C        6.11004886       2.15353608      16.85303289       10       0.00226354      -0.00422477      -0.00781426
C        7.32636991       2.85389747      16.83630075       10      -0.00012445      -0.00000275       0.03455236
C        4.90861505       4.25631003      16.83008926       10      -0.00181975       0.00168789       0.00469059
C        6.12123559       4.95750304      16.82184282       10      -0.00124031      -0.00054469       0.00425862
C        3.69744696       6.35719138      16.82422340       10      -0.00201925      -0.00059995      -0.00277628
C        4.90876821       7.05657759      16.82730129       10       0.00092563      -0.00275604       0.00855792
C        2.48371138       8.45734365      16.83008899       10       0.00434975      -0.00117647       0.00975149
C        3.69670633       9.15701924      16.82184241       10       0.00363544       0.00074362      -0.00411805
C        9.75719551       0.05487927      16.81017282       10       0.00255520       0.00417318       0.00832447
C       10.97544063       0.75489597      16.83630056       10      -0.00370358      -0.00041458       0.00251864
C        8.51493084       2.14139075      16.82866201       10       0.00161566       0.00121789       0.38322532
C        9.75632084       2.85934313      16.58430275       10       0.00231420       0.00142929      -1.72221292
C        7.32847335       4.26048955      16.81017287       10      -0.00158167      -0.00016779      -0.04603026
C        8.54573714       4.96591393      16.83629819       10      -0.00267260      -0.00164029       0.05878704
C        6.12200739       6.35843559      16.83008916       10       0.00383811      -0.00179071       0.02099380
C        7.33156030       7.05915090      16.84397286       10       0.00347082      -0.00000064       0.02795365
C        4.91036871       8.45663237      16.83008899       10       0.00317633       0.00134180       0.00866313
C        6.12295139       9.15340192      16.84397261       10      -0.00534691       0.00137266      -0.00649415
O        9.84408827       2.81102369      15.05230529       11      -0.00623160      -0.00273328      -0.00633904
H        9.09289170       3.27593719      14.63606125       12       0.00518169      -0.00314198       0.00594743
