132
Lattice="12.12 0.0 0.0 -6.06 10.496227893867395 0.0 0.0 0.0 40.0" Properties=species:S:1:pos:R:3:tags:I:1:forces:R:3 energy=-1211.0132106355418 stress="0.0028754428699879495 5.103802475077484e-06 -5.9054370734116414e-06 5.103802475077484e-06 0.002877583261812192 -3.4022456481862848e-06 -5.9054370734116414e-06 -3.4022456481862848e-06 0.0026286447623949227" pbc="T T F"
C       -0.13151722       0.11070325      10.00803125        2      -0.00034866      -0.00164243       0.00360356
Ti      -0.13760288       1.85948796      11.32116961        0      -0.00006880      -0.00166732      -0.00206140
Ti       1.38313945       0.98619661       8.72119391        0       0.00048498      -0.00012868      -0.00346046
O       -0.13327442       1.86130808       7.78304396        1      -0.00017123      -0.00075383       0.00055554
O        1.38601225       0.98399743      12.23008024        3       0.00084162      -0.00045924      -0.00083130
C       -1.64735783       2.73379275      10.01524478        2      -0.00102145      -0.00197726       0.00156312
Ti      -1.64109221       4.49084948      11.28894767        0       0.00117760      -0.00134844      -0.00470818
Ti      -0.13052692       3.60922581       8.72007917        0       0.00033913      -0.00084298       0.00036484
O       -1.64639844       4.48255913       7.78057406        1       0.00031680      -0.00073660      -0.00029462
O       -0.12741043       3.61541734      12.23008024        3      -0.00198385      -0.00174859      -0.12571068
C       -3.16114581       5.36027233      10.00359740        2      -0.00084949      -0.00081390       0.00345874
Ti      -3.16275188       7.10821678      11.30665790        0      -0.00124751      -0.00144094      -0.00163354
Ti      -1.64728488       6.23470701       8.71508121        0      -0.00010810      -0.00458845       0.00079179
O       -3.16100296       7.10889474       7.77867739        1      -0.00012570      -0.00178868      -0.00118109
O       -1.64891130       6.23581794      12.23008024        3      -0.00100934      -0.00165367      -0.01914229
C       -4.67700631       7.98362643      10.00397410        2       0.00088680      -0.00223943       0.00197646
Ti      -4.67612498       9.73174498      11.30313704        0      -0.00089491       0.00049042      -0.00229036
Ti      -3.16172384       8.85853071       8.71663980        0       0.00000387       0.00480252       0.00236329
O       -4.67701164       9.73391896       7.78055633        1      -0.00156949       0.00120998       0.00121143
O       -3.16085905       8.85780379      12.23008024        3      -0.00174073      -0.00042715      -0.02286793
C        2.89806720       0.11150362      10.00553927        2       0.00026990      -0.00051339       0.00271217
Ti       2.89760854       1.86015499      11.30527982        0      -0.00107024       0.00006115      -0.00218273
Ti       4.41314405       0.98624405       8.71812546        0      -0.00484683      -0.00200326      -0.00196396
O        2.89701690       1.86029021       7.78091900        1      -0.00271165      -0.00036219       0.00154742
O        4.41447699       0.98627051      12.23008024        3      -0.00045057       0.00229015      -0.01512510
C        1.38237542       2.73530454      10.00887332        2       0.00014615      -0.00022768       0.00387099
Ti       1.38148748       4.48185661      11.30874236        0      -0.00090729       0.00022642      -0.00129681
Ti       2.89886672       3.61029081       8.71801032        0       0.00024194      -0.00180817       0.00010187
O        1.38132813       4.48340447       7.78119409        1      -0.00123644       0.00180063       0.00066037
O        2.90082518       3.60956754      12.23008024        3      -0.00195845      -0.00180113      -0.01401051
C       -0.13225874       5.35943727      10.00672297        2      -0.00267605      -0.00040051       0.00212777
Ti      -0.13247709       7.10969606      11.30632294        0      -0.00073169       0.00253784      -0.00321936
Ti       1.38409188       6.23422319       8.71797795        0      -0.00157050      -0.00114405       0.00205545
O       -0.13169329       7.10829219       7.77970488        1       0.00037833      -0.00096108      -0.00143865
O        1.38320238       6.23481050      12.23008024        3      -0.00229371       0.00215287      -0.02485334
C       -1.64633268       7.98357836      10.00495175        2      -0.00130118      -0.00162978       0.00110923
Ti      -1.64769991       9.73366881      11.30476263        0       0.00064482       0.00013804      -0.00090595
Ti      -0.13129677       8.85814012       8.71798778        0      -0.00323894       0.00100418       0.00166773
O       -1.64667325       9.73301062       7.77960325        1       0.00066666      -0.00073165       0.00081733
O       -0.13219059       8.85908756      12.23008024        3       0.00210804      -0.00164255      -0.00463981
C        5.92823038       0.11103965      10.00486138        2       0.00101470       0.00090626       0.00023366
Ti       5.92911719       1.86221419      11.30759366        0      -0.00054906       0.00040572      -0.00390432
Ti       7.44212261       0.98625275       8.71422027        0       0.00190038       0.00128350      -0.00174265
O        5.92915926       1.86034493       7.77930667        1       0.00035804      -0.00074445      -0.00271105
O        7.43931749       0.98587689      12.23008024        3       0.00070434      -0.00075516      -0.03964182
C        4.41267640       2.73588611      10.00405591        2       0.00153323      -0.00048402       0.00224884
Ti       4.41193823       4.48426575      11.30388166        0      -0.00033548      -0.00035079      -0.00139063
Ti       5.92818541       3.61002296       8.71556407        0       0.00125452      -0.00048506      -0.00015540
O        4.41269225       4.48381572       7.77811728        1      -0.00084851      -0.00300521      -0.00117830
O        5.92647337       3.60975373      12.23008024        3      -0.00171985      -0.00191930      -0.05678785
C        2.89881201       5.35986154      10.00379202        2       0.00054268       0.00051430       0.00011623
Ti       2.89870372       7.10761471      11.30360288        0      -0.00224726       0.00002870      -0.00090558
Ti       4.41339981       6.23412104       8.71504843        0      -0.00085270      -0.00048096       0.00071594
O        2.89772830       7.10912042       7.77829944        1      -0.00619677       0.00312042      -0.00190815
O        4.41384819       6.23313879      12.23008024        3      -0.00015172      -0.00121218      -0.04824254
C        1.38365479       7.98275048      10.00465381        2      -0.00256457       0.00024427       0.00206264
Ti       1.38179287       9.73366092      11.30843974        0      -0.00143691      -0.00319033      -0.00433999
Ti       2.89889472       8.85694000       8.71907594        0       0.00000294      -0.00032671       0.00142865
O        1.38449125       9.73340477       7.78041840        1      -0.00016918      -0.00341533      -0.00312539
O        2.89595177       8.85566665      12.23008024        3      -0.00324189      -0.00034817      -0.01892055
C        8.95769650       0.11200320      10.00866989        2      -0.00103227      -0.00063494       0.00046511
Ti       8.95553198       1.84519361      11.28513644        0       0.00313827      -0.00310007      -0.00401954
Ti      10.47477125       0.98563707       8.72059361        0       0.00038133      -0.00134848      -0.00101869
O        8.96020373       1.86112130       7.77985021        1       0.00065785      -0.00137425      -0.00262659
O       10.47559152       0.96492308      12.23008024        3      -0.00047267      -0.00025772      -0.36306919
C        7.44456027       2.73352440      10.00530969        2      -0.00017719      -0.00241425       0.00206860
Ti       7.43372068       4.49045511      11.29033359        0      -0.00024920      -0.00101356      -0.00361844
Ti       8.95811902       3.60989107       8.72026047        0      -0.00256834      -0.00073403      -0.00200094
O        7.44543577       4.48323663       7.77897902        1       0.00026997      -0.00064837       0.00039142
O        8.93940409       3.62458014      12.23008024        3      -0.00270334      -0.00164447       0.13212978
C        5.92672828       5.36022392      10.00176273        2      -0.00162946      -0.00030404       0.00284716
Ti       5.92746609       7.10901062      11.30389227        0      -0.00135173      -0.00129646      -0.00226763
Ti       7.44365488       6.23450684       8.71523351        0      -0.00012500      -0.00353464       0.00023427
O        5.92858753       7.10976947       7.77805967        1       0.00141297       0.00070654      -0.00163011
O        7.44271030       6.23479256      12.23008024        3      -0.00064580      -0.00042571      -0.03867104
C        4.41276479       7.98076909      10.00332751        2       0.00014035      -0.00235452       0.00029216
Ti       4.41487856       9.73393998      11.31178573        0      -0.00015121      -0.00311900      -0.00191479
Ti       5.92805157       8.85778509       8.71814719        0       0.00071252      -0.00086986      -0.00011648
O        4.41283437       9.73499860       7.78188693        1      -0.00189798      -0.00251279      -0.00090985
O        5.93001269       8.85467095      12.23008024        3       0.00077701       0.00078211      -0.01352285
C        0.26867246      -0.11659501      16.14099115       10      -0.00292934      -0.00380674      -0.01230327
C        1.47769471       0.58516821      16.14937938       10       0.00263813       0.00037048       0.02705495
C       -0.92502542       1.97318236      16.11662048       10       0.00102459      -0.00310041       0.73407902
C        0.26567679       2.68262183      16.12425922       10      -0.00081560      -0.00011364       0.06694208
C       -2.16364226       4.11295294      16.11661493       10       0.00060936       0.00120861       0.42581063
C       -0.95198460       4.78835614      16.12425666       10       0.00016836       0.00021079       0.06888677
C       -3.37456116       6.19247881      16.14099060       10      -0.00003149       0.00045401       0.02812343
C       -2.16176932       6.88812176      16.14937918       10      -0.00060458       0.00324419       0.03706887
C       -4.58571436       8.28464654      16.13909821       10      -0.00237465      -0.00131608       0.01215453
C       -3.37378199       8.98394298      16.15038787       10       0.00386982       0.00258565      -0.00300380
C        2.68791516      -0.11378000      16.15141289       10       0.00025479      -0.00186859      -0.00210899
C        3.89799565       0.58679237      16.15038778       10      -0.00124336      -0.00391086       0.00157706
C        1.48140428       1.98302285      16.14099136       10       0.00170646      -0.00171846      -0.00252768
C        2.68777113       2.68603250      16.13193123       10      -0.00118031       0.00010504       0.01335179
C        0.26171827       4.08531432      16.09813134       10       0.00082537       0.00044428       0.16568705
C        1.47229112       4.78440841      16.10980129       10      -0.00195967       0.00171031      -0.00277698
C       -0.94945879       6.19132896      16.14099060       10      -0.00108897       0.00128229       0.00705315
C        0.26267797       6.88564886      16.13193133       10      -0.00123942       0.00358371       0.03099049
C       -2.16185905       8.28616933      16.15141310       10       0.00035029      -0.00067412       0.01278788
C       -0.94999320       8.98379259      16.15038787       10      -0.00107152       0.00065291       0.00693735
C        5.10820469      -0.11390380      16.15141289       10       0.00282522      -0.00174807       0.01613983
C        6.31896610       0.58504571      16.14937938       10      -0.00007249       0.00118011       0.02313811
C        3.89796924       1.98607265      16.13909808       10       0.00192955      -0.00235389       0.02459469
C        5.10828176       2.68614343      16.13193123       10      -0.00043788       0.00042920      -0.00289214
C        2.68562761       4.08530376      16.11804773       10       0.00211436       0.00169942      -0.01326100
C        3.89726870       4.78551227      16.11525987       10       0.00052327      -0.00011092       0.04991409
C        1.47391158       6.18490452      16.11804763       10       0.00123963       0.00228217      -0.01713058
C        2.68566313       6.88486291      16.11525976       10       0.00063898       0.00182395       0.05649690
C        0.26189226       8.28424557      16.13909821       10       0.00076372       0.00083984       0.01966628
C        1.47344404       8.98280179      16.13193108       10      -0.00182972       0.00301754       0.02068035
C        7.52861422      -0.11629194      16.14099115       10       0.00296944       0.00241481       0.01462615
C        8.74254684       0.58731382      16.12425903       10       0.00220368       0.00260106       0.04034545
C        6.31506303       1.98314075      16.14099136       10       0.00066281       0.00099926       0.02384754
C        7.53032054       2.68391985      16.12425922       10       0.00340821       0.00188583       0.01147495
C        5.10916283       4.08564062      16.11804773       10       0.00227271       0.00070759       0.00399044
C        6.32249537       4.78531619      16.10980129       10       0.00267571       0.00081201      -0.03638353
C        3.89764137       6.18530544      16.11218187       10       0.00321142      -0.00047179      -0.01342139
C        5.10970426       6.88561225      16.11525976       10       0.00075838       0.00117803       0.03401733
C        2.68587899       8.28424299      16.11804746       10       0.00191388       0.00203452      -0.00836862
C        3.89809026       8.98588309      16.10980088       10      -0.00101216       0.00162684      -0.03552244
C        9.95811945      -0.11204830      16.09813129       10       0.00062596      -0.00055215       0.18678513
C       11.17488007       0.58648241      16.12425903       10       0.00355821       0.00356152       0.03479042
C        8.72197834       1.97536376      16.11662048       10       0.00300755       0.00057960       0.41984990
C        9.95561620       2.68957949      15.87226122       10       0.00176240       0.00288019      -1.97582852
C        7.53323953       4.08636435      16.09813134       10       0.00109017       0.00217531       0.17670558
C        8.74653071       4.79007055      16.12425666       10       0.00131474       0.00194401       0.03375572
C        6.32177796       6.18574992      16.11804763       10       0.00175382       0.00154154      -0.00060396
C        7.53325854       6.88636330      16.13193133       10      -0.00031033       0.00467759       0.00076644
C        5.11021032       8.28513268      16.11804746       10      -0.00125059       0.00010500      -0.00659203
C        6.32288748       8.98299482      16.13193108       10       0.00389696       0.00377345      -0.00018562
O       10.01900294       2.61670832      14.36905621       11       0.00379434       0.00778695       0.00087302
H        9.38379314       3.18342842      13.86041130       12       0.00323294       0.00841796      -0.00168799
