132
Lattice="12.12 0.0 0.0 -6.06 10.496227893867395 0.0 0.0 0.0 40.0" Properties=species:S:1:pos:R:3:tags:I:1:forces:R:3 energy=-1208.1887989527863 stress="0.0027562668373552063 1.2813312631882172e-05 -8.929400020963237e-06 1.2813312631882172e-05 0.0027360893523874098 -6.201156965519622e-06 -8.929400020963237e-06 -6.201156965519622e-06 0.0029000917886816686" pbc="T T F"
C       -0.13536398       0.13448600       9.94359116        2      -0.00213522       0.00060995       0.00240355
Ti      -0.17665715       1.89624568      11.34021342        0      -0.00188705      -0.00193633       0.00168526
Ti       1.37606934       1.02249096       8.70019435        0      -0.00169845      -0.00022771      -0.00664950
O       -0.14708348       1.90144693       7.78427881        1      -0.00217051       0.00052733       0.00323513
O        1.37958358       1.01577841      12.23159545        3       0.00000818      -0.00047039      -0.19185714
C       -1.66267946       2.76468022      10.02113159        2      -0.00027437      -0.00060137       0.00580644
Ti      -1.63634726       4.52073159      11.27531729        0       0.00016439       0.00410817      -0.00191418
Ti      -0.12536571       3.64812092       8.70053833        0      -0.00315890      -0.00444092      -0.00113984
O       -1.65357663       4.50965357       7.77545325        1      -0.00115382       0.00047738       0.00007877
O       -0.12153410       3.66365565      12.23159545        3      -0.00047003      -0.00333966      -0.48415672
C       -3.17652466       5.40723459       9.94077488        2      -0.00096251      -0.00195682       0.00073997
Ti      -3.17050424       7.14891001      11.28667525        0      -0.00227076      -0.00054208       0.00252402
Ti      -1.65477029       6.27376557       8.68226764        0       0.00044999      -0.00037945      -0.00473249
O       -3.16543542       7.15040650       7.75607978        1       0.00166738      -0.00128427       0.00054110
O       -1.65687892       6.27828301      12.23159545        3       0.00022480      -0.00318048      -0.25103812
C       -4.68177706       8.01957145       9.95131756        2      -0.00030359      -0.00087222       0.00133464
Ti      -4.68359161       9.76505552      11.29131992        0      -0.00166463      -0.00007249       0.00473053
Ti      -3.16337057       8.89884918       8.69012807        0      -0.00151322       0.00232452      -0.00171250
O       -4.67857264       9.77219442       7.76149483        1      -0.00145866      -0.00185197      -0.00205889
O       -3.16913339       8.89955243      12.23159545        3      -0.00059634      -0.00273536      -0.21446407
C        2.89142334       0.15108778       9.96261780        2       0.00028031      -0.00130198       0.00269070
Ti       2.88704693       1.89407721      11.29469566        0      -0.00161486      -0.00139213       0.00131038
Ti       4.40250853       1.02241508       8.69704317        0      -0.00367688      -0.00198715      -0.00386809
O        2.89205737       1.89593246       7.76586099        1      -0.00264877       0.00028016      -0.00213723
O        4.40256617       1.02174274      12.23159545        3       0.00043217       0.00067089      -0.24665038
C        1.37652739       2.77541949       9.95739909        2      -0.00303503       0.00001243       0.00437236
Ti       1.39395586       4.52633038      11.27301415        0      -0.00117546       0.00273208       0.00239905
Ti       2.89026462       3.64101749       8.69314213        0       0.00238012      -0.00133692      -0.00383696
O        1.37286413       4.52031823       7.76492269        1       0.00000585      -0.00156523       0.00074809
O        2.88683361       3.64021200      12.23159545        3       0.00007471       0.00098126      -0.20321048
C       -0.13416906       5.40006089       9.95863489        2       0.00021534      -0.00107957       0.00109860
Ti      -0.14395773       7.15028429      11.29071741        0      -0.00104053      -0.00090001       0.00369827
Ti       1.37291895       6.27336404       8.69149390        0      -0.00181243      -0.00073807      -0.00385701
O       -0.13789714       7.14669099       7.76130893        1      -0.00394021      -0.00228591       0.00417442
O        1.37292971       6.26970296      12.23159545        3      -0.00169303      -0.00216624      -0.23300974
C       -1.65156007       8.02044554       9.95799773        2      -0.00052802      -0.00060651       0.00136152
Ti      -1.65015932       9.77573717      11.28952272        0      -0.00221150      -0.00278344       0.00152000
Ti      -0.14228462       8.89408218       8.69762455        0       0.00146700      -0.00047278      -0.00514193
O       -1.65048729       9.77366302       7.76467525        1       0.00035936      -0.00297543       0.00141193
O       -0.14225202       8.89487060      12.23159545        3      -0.00161072      -0.00017973      -0.20830474
C        5.92533986       0.14930411       9.96577207        2      -0.00123052      -0.00075173       0.00356238
Ti       5.93207958       1.90193550      11.28828615        0      -0.00440945      -0.00161974      -0.00045432
Ti       7.42971396       1.02014218       8.68419188        0       0.00133084      -0.00416318      -0.00521593
O        5.92285728       1.89626549       7.76774107        1       0.00092031      -0.00321580      -0.00137319
O        7.43169928       1.01938912      12.23159545        3       0.00112373       0.00029867      -0.22096925
C        4.40417770       2.77323786       9.95912086        2       0.00048098      -0.00330870       0.00275192
Ti       4.40032347       4.51555709      11.28742634        0       0.00162553       0.00207363      -0.00246979
Ti       5.91516877       3.64053816       8.69591493        0      -0.00086854       0.00226438      -0.00257511
O        4.40685056       4.51758224       7.76317132        1      -0.00368449       0.00152195       0.00138317
O        5.91087740       3.64922477      12.23159545        3       0.00003149      -0.00179779      -0.25239030
C        2.89459672       5.39737459       9.96241113        2      -0.00234404      -0.00092863       0.00207915
Ti       2.88835935       7.13782206      11.29228477        0       0.00047081      -0.00005879       0.00239157
Ti       4.40465215       6.27109598       8.67100970        0       0.00428960      -0.00538336      -0.00073671
O        2.88812881       7.14581888       7.76125183        1       0.00379481      -0.00544101      -0.00546562
O        4.40390582       6.27101107      12.23159545        3      -0.00297081       0.00032229      -0.27467714
C        1.37503515       8.01786157       9.95776625        2      -0.00233304       0.00037330       0.00405655
Ti       1.38012289       9.76808268      11.28927160        0       0.00111961      -0.00225395      -0.00024406
Ti       2.88703791       8.89064628       8.69074752        0      -0.00234311      -0.00152918      -0.00253203
O        1.37820778       9.77146651       7.76772387        1      -0.00143050       0.00330116       0.00412202
O        2.88939735       8.87778572      12.23159545        3      -0.00185081       0.00118090      -0.28052412
C        8.95507247       0.13741984       9.97223776        2      -0.00092478      -0.00093920       0.00206930
Ti       8.98440994       1.86349516      11.28912682        0      -0.00146903       0.00213535       0.00148160
Ti      10.47508457       1.00532763       8.69647225        0      -0.00064476       0.00077451      -0.00166078
O        8.95641454       1.89824039       7.77962244        1      -0.00164095      -0.00195484       0.00320758
O       10.51766208       0.90841410      12.23159545        3      -0.00154341      -0.00141309      -0.92751422
C        7.43540813       2.77431828       9.96583047        2      -0.00076662       0.00060371       0.00250858
Ti       7.38188674       4.55664508      11.24962388        0       0.00218345      -0.00135326       0.00449173
Ti       8.93998200       3.65528574       8.68207795        0      -0.00442469      -0.00146428      -0.00604412
O        7.43454380       4.51705322       7.76270520        1      -0.00176116       0.00016075       0.00370519
O        8.88204712       3.75543114      12.23159545        3      -0.00168552      -0.00339980      -1.07863683
C        5.90833683       5.40469939       9.96524540        2      -0.00116461      -0.00142793       0.00389122
Ti       5.92743194       7.14738731      11.27866304        0      -0.00298026      -0.00194220       0.00153393
Ti       7.44360395       6.28075087       8.68184756        0      -0.00321510      -0.00225740      -0.00321777
O        5.91986866       7.14249645       7.75503407        1      -0.00376212       0.00146206       0.00050541
O        7.43592929       6.28702047      12.23159545        3      -0.00131737      -0.00395477      -0.25715168
C        4.40733110       8.00535989       9.95925004        2      -0.00138989      -0.00092445       0.00137947
Ti       4.41634142       9.71692237      11.25511623        0      -0.00382257      -0.00417724       0.00031237
Ti       5.93161099       8.89628875       8.68153553        0      -0.00003059      -0.00199676      -0.00533226
O        4.40165919       9.76733974       7.76196088        1       0.00019137       0.00041770      -0.00123410
O        5.93765378       8.88565269      12.23159545        3      -0.00005022      -0.00184103      -0.23905181
C        0.28379704      -0.18120236      15.43198004       10      -0.00082244       0.00002668       0.09627927
C        1.49001136       0.52188591      15.44036827       10       0.00205304       0.00266041       0.09075392
C       -0.90404954       1.90532838      15.40760937       10      -0.00127742       0.00407024       0.63631982
C        0.28249856       2.61902064      15.41524811       10      -0.00009556       0.00291985       0.10947792
C       -2.15011846       4.06264468      15.40760382       10      -0.00155193       0.00315404       0.57087707
C       -0.93822941       4.73380996      15.41524555       10      -0.00003889       0.00042910       0.12602819
C       -3.36439180       6.13848025      15.43197949       10       0.00189944       0.00153690       0.08593048
C       -2.15147636       6.83023336      15.44036807       10       0.00274229       0.00248815       0.08087823
C       -4.57344396       8.22516726      15.43008710       10      -0.00325933       0.00009504       0.11794705
C       -3.36263884       8.92352569      15.44137676       10       0.00038080       0.00437045       0.07644249
C        2.69962984      -0.17671030      15.44240178       10       0.00134682       0.00125614       0.10387293
C        3.90710502       0.52355286      15.44137667       10       0.00229548       0.00223152       0.05626837
C        1.49624964       1.91938271      15.43198025       10       0.00114814       0.00241900       0.09827162
C        2.70015213       2.62367793      15.42292012       10       0.00238346       0.00236075       0.08622998
C        0.27780906       4.02595047      15.38912023       10       0.00036419       0.00295332       0.07871616
C        1.48498168       4.72454056      15.40079018       10       0.00176872      -0.00011886       0.08756917
C       -0.93859965       6.13684441      15.43197949       10       0.00212963      -0.00059915       0.11381962
C        0.27338442       6.82768394      15.42292022       10       0.00327192      -0.00067160       0.09443134
C       -2.15203874       8.22712039      15.44240199       10       0.00027655       0.00318177       0.08903135
C       -0.94190702       8.92308496      15.44137676       10       0.00081491       0.00337014       0.06656252
C        5.11618063      -0.17648147      15.44240178       10       0.00143087      -0.00101442       0.06004851
C        6.32802490       0.52265422      15.44036827       10       0.00175745      -0.00131370       0.06095858
C        3.90791848       1.92312781      15.43008697       10       0.00368151       0.00309563       0.06866117
C        5.11639339       2.62508326      15.42292012       10       0.00374989       0.00257555       0.05510671
C        2.69851771       4.02384949      15.40903662       10       0.00172315       0.00150711       0.09361008
C        3.90908128       4.72571162      15.40624876       10       0.00060921       0.00178744       0.09192314
C        1.48411909       6.12554297      15.40903652       10       0.00344402      -0.00112277       0.10020968
C        2.69757781       6.82380494      15.40624865       10       0.00084551       0.00191187       0.10306337
C        0.27096702       8.22466011      15.43008710       10       0.00148841       0.00098341       0.07392457
C        1.48285547       8.92082126      15.42291997       10       0.00084916       0.00326898       0.06210549
C        7.53617302      -0.17945848      15.43198004       10       0.00255919      -0.00061085       0.05834385
C        8.75234515       0.52433930      15.41524792       10       0.00271418       0.00164541       0.12934469
C        6.32188531       1.92063048      15.43198025       10       0.00251303      -0.00060469       0.05947033
C        7.53904212       2.62162854      15.41524811       10       0.00199487       0.00257271       0.14859858
C        5.11966626       4.02449686      15.40903662       10       0.00112667       0.00219693       0.06260755
C        6.33299735       4.72685140      15.40079018       10       0.00191358      -0.00033358       0.04535594
C        3.90959009       6.12477978      15.40317076       10      -0.00009541       0.00112298       0.07082882
C        5.12130400       6.82516472      15.40624865       10       0.00067518       0.00031425       0.07330651
C        2.69623690       8.22328295      15.40903635       10       0.00103726       0.00263732       0.07122864
C        3.91061759       8.92395893      15.40078977       10       0.00146858       0.00309612       0.04727300
C        9.97066096      -0.17703930      15.38912018       10       0.00173616      -0.00049959       0.07375978
C       11.19143700       0.52235472      15.41524792       10       0.00524513       0.00321291       0.07519052
C        8.72859861       1.91091695      15.40760937       10       0.00086265       0.00212367       0.28789337
C        9.97254629       2.62705312      15.16325011       10       0.00213452       0.00173578       0.18131671
C        7.54120637       4.02864247      15.38912023       10       0.00271530       0.00208078       0.04048641
C        8.75768706       4.73680927      15.41524555       10       0.00471528       0.00048179       0.18435672
C        6.33385777       6.12781601      15.40903652       10       0.00095392      -0.00145512       0.09042409
C        7.54307595       6.82999261      15.42292022       10       0.00320000      -0.00245403       0.05603466
C        5.12338783       8.22406321      15.40903635       10       0.00009192       0.00060678       0.10049140
C        6.33661475       8.92062241      15.42291997       10       0.00318011       0.00264289       0.06664456
O       10.04810728       2.63594027      13.75018035       11       0.00366260      -0.00200653      -0.00773844
H        9.34617552       3.32165702      13.33751210       12      -0.00234139       0.00722727      -0.00462322
