132
Lattice="12.12 0.0 0.0 -6.06 10.496227893867395 0.0 0.0 0.0 40.0" Properties=species:S:1:pos:R:3:tags:I:1:forces:R:3 energy=-1209.7181835722845 stress="0.0027952358394223026 6.9359117646213375e-06 -7.67023858194977e-06 6.9359117646213375e-06 0.0027950591780325704 -4.45775980180669e-06 -7.67023858194977e-06 -4.45775980180669e-06 0.0028139245360248198" pbc="T T F"
C       -0.12229129       0.10668170       9.98385855        2      -0.00104145      -0.00148538       0.00022717
Ti      -0.14011331       1.86388408      11.31891565        0       0.00285934      -0.00281497      -0.00234099
Ti       1.39123740       0.98775638       8.70127860        0      -0.00210302      -0.00106614       0.00327685
O       -0.12620236       1.86350100       7.78238976        1      -0.00361409       0.00061938       0.00170340
O        1.39227725       0.98593820      12.23159545        3       0.00025282      -0.00072997      -0.01834591
C       -1.63863342       2.73443249      10.01072468        2      -0.00164650      -0.00138369       0.00218413
Ti      -1.63113280       4.47766361      11.29845270        0      -0.00405722      -0.00088041       0.00025765
Ti      -0.12179015       3.61058688       8.70535035        0      -0.00195616       0.00037722       0.00261452
O       -1.64004438       4.48214405       7.78099230        1      -0.00033416      -0.00000796       0.00159458
O       -0.12209826       3.61814710      12.23159545        3      -0.00017676      -0.00309758      -0.18182573
C       -3.15748485       5.36691410       9.97910225        2      -0.00244248      -0.00069282      -0.00079860
Ti      -3.15724217       7.10868800      11.30526704        0       0.00353921      -0.00114901      -0.00343636
Ti      -1.64169582       6.23767379       8.69739967        0       0.00173694       0.00086240       0.00128134
O       -3.15357664       7.11259286       7.77166612        1      -0.00064576      -0.00249087      -0.00016027
O       -1.64356457       6.23130716      12.23159545        3       0.00198683      -0.00080795      -0.03084542
C       -4.66926099       7.98454408       9.98308766        2      -0.00040342       0.00003638      -0.00125457
Ti      -4.67451320       9.73601279      11.31336885        0      -0.00100467       0.00009926      -0.00114924
Ti      -3.15311802       8.86131612       8.69958111        0      -0.00110772       0.00017121       0.00255973
O       -4.66817853       9.73579152       7.77520506        1      -0.00441569      -0.00129793      -0.00070852
O       -3.15555802       8.86122993      12.23159545        3      -0.00143005      -0.00201194      -0.07021668
C        2.90482340       0.11336747       9.98557183        2       0.00041602      -0.00225865       0.00247630
Ti       2.90206737       1.86153152      11.31126122        0      -0.00359748       0.00409622      -0.00195011
Ti       4.41842795       0.98717820       8.70051210        0      -0.00063561      -0.00058757       0.00200276
O        2.90495784       1.86308833       7.77700165        1      -0.00116324       0.00100599      -0.00185763
O        4.42196607       0.98911221      12.23159545        3      -0.00166513       0.00045810      -0.06384120
C        1.39089516       2.73704272       9.98946226        2       0.00085673      -0.00162572      -0.00023845
Ti       1.39641151       4.48475144      11.30293807        0       0.00063935       0.00104291      -0.00261244
Ti       2.90406552       3.61187494       8.69990339        0      -0.00012833      -0.00428040       0.00329626
O        1.38801442       4.48686290       7.77852325        1      -0.00306192      -0.00457458      -0.00039159
O        2.90777714       3.60876255      12.23159545        3      -0.00153595       0.00254157      -0.02926205
C       -0.12388226       5.36336366       9.98934407        2      -0.00103938       0.00005557      -0.00146987
Ti      -0.13021338       7.11001454      11.31419256        0      -0.00382711      -0.00110308      -0.00032969
Ti       1.38822477       6.23677472       8.70238506        0      -0.00032723      -0.00280069       0.00382732
O       -0.12482721       7.11130091       7.77674019        1      -0.00185135      -0.00313511      -0.00071074
O        1.38740673       6.23512659      12.23159545        3       0.00009302      -0.00088229      -0.04010271
C       -1.64116770       7.98531052       9.98721268        2      -0.00127924       0.00060314      -0.00042069
Ti      -1.63965632       9.73555772      11.30643251        0      -0.00031530      -0.00016497      -0.00527065
Ti      -0.12576999       8.86013162       8.69989469        0       0.00127917      -0.00087078       0.00438414
O       -1.63882138       9.73536158       7.77501132        1       0.00399083      -0.00108592       0.00007760
O       -0.12372677       8.86137430      12.23159545        3      -0.00227190       0.00235998      -0.03994895
C        5.93613204       0.11307343       9.98882523        2      -0.00216247      -0.00020852      -0.00045308
Ti       5.93730782       1.86522684      11.31074659        0       0.00160201      -0.00493913      -0.00226946
Ti       7.44619860       0.98868952       8.70217675        0      -0.00016057      -0.00284573       0.00030416
O        5.93378011       1.86126515       7.77632979        1       0.00171493      -0.00033585      -0.00110968
O        7.45314040       0.99073709      12.23159545        3       0.00221013       0.00069477      -0.03637625
C        4.41786280       2.73820085       9.98615860        2      -0.00043291      -0.00168062      -0.00112703
Ti       4.42146657       4.48225753      11.30752295        0      -0.00182236      -0.00055708      -0.00567649
Ti       5.93152877       3.60856814       8.70169958        0       0.00033765      -0.00051348       0.00106784
O        4.41871093       4.48534060       7.77324826        1      -0.00105503      -0.00180838      -0.00013634
O        5.93511199       3.61072491      12.23159545        3       0.00076880       0.00021420      -0.04267337
C        2.90658575       5.36281949       9.98829496        2      -0.00032937      -0.00083650       0.00162261
Ti       2.90434810       7.10926288      11.31285879        0       0.00221033      -0.00148303      -0.00296551
Ti       4.41867516       6.23660875       8.68861664        0      -0.00105326      -0.00176679       0.00288512
O        2.90171628       7.11192173       7.77480572        1       0.00054664      -0.00395328      -0.00246253
O        4.42151143       6.23390167      12.23159545        3      -0.00070290      -0.00150013      -0.06767351
C        1.38903107       7.98302279       9.98853776        2       0.00033655      -0.00153328       0.00175990
Ti       1.39098831       9.73212981      11.30956010        0      -0.00293182       0.00182080      -0.00184782
Ti       2.90348827       8.86098629       8.69903433        0       0.00006059      -0.00230241       0.00281068
O        1.38957283       9.73494118       7.77776612        1       0.00155577       0.00052438      -0.00122429
O        2.90362007       8.85697445      12.23159545        3       0.00041528      -0.00213802      -0.06068688
C        8.96563248       0.10656073       9.98946695        2      -0.00016534      -0.00134447       0.00068680
Ti       8.99199720       1.84470004      11.32481711        0      -0.00538345       0.00159652      -0.00335172
Ti      10.48509228       0.98198068       8.70530404        0      -0.00127056      -0.00165337       0.00179444
O        8.96830196       1.86310300       7.78703765        1      -0.00132267      -0.00075485       0.00530166
O       10.48856062       0.95174383      12.23159545        3       0.00024277       0.00127142      -0.44271128
C        7.44694407       2.73686736       9.98467338        2      -0.00141621       0.00016068      -0.00305282
Ti       7.43333179       4.49638994      11.28258791        0       0.00169167      -0.00353334      -0.00083915
Ti       8.95879818       3.61598567       8.69042237        0      -0.00019620       0.00063202      -0.00035513
O        7.44943594       4.48532591       7.77422775        1      -0.00140724      -0.00005436      -0.00024836
O        8.93659010       3.63581691      12.23159545        3       0.00208164       0.00061448      -0.27977762
C        5.92641431       5.36665128       9.98554024        2       0.00013772      -0.00087470      -0.00112870
Ti       5.93970756       7.10854871      11.30311223        0      -0.00335290       0.00044433      -0.00546407
Ti       7.45203801       6.24053236       8.69549284        0      -0.00080118       0.00050870       0.00226426
O        5.93408592       7.11041308       7.76986445        1      -0.00192527      -0.00160193      -0.00113771
O        7.45116468       6.23299685      12.23159545        3      -0.00350390      -0.00030322      -0.04818789
C        4.42115728       7.97824263       9.98531716        2      -0.00117924      -0.00098003       0.00035810
Ti       4.42489663       9.71652355      11.28865974        0      -0.00168857      -0.00341808      -0.00117748
Ti       5.93794057       8.86003627       8.69516445        0      -0.00092184      -0.00040810       0.00248970
O        4.41901365       9.73412267       7.77495570        1      -0.00235164      -0.00060436      -0.00201574
O        5.93855878       8.85524691      12.23159545        3      -0.00327109       0.00119912      -0.04273666
C        0.26089236      -0.12217304      15.85829583       10       0.00753335       0.00421945       0.04461042
C        1.46686157       0.58123513      15.86668406       10       0.00043699      -0.00365934       0.03600038
C       -0.92786400       1.96372168      15.83392516       10       0.00304250      -0.00022838       0.70461970
C        0.25876396       2.67757349      15.84156390       10       0.00053262       0.00228792       0.10120146
C       -2.17426920       4.11883026      15.83391961       10       0.00300581      -0.00056956       0.33132501
C       -0.96104252       4.78920010      15.84156134       10      -0.00126621       0.00205246       0.08016106
C       -3.38614252       6.19481866      15.85829528       10       0.00199935       0.00078561       0.02750985
C       -2.17307811       6.88567366      15.86668386       10      -0.00068376       0.00130935       0.02900768
C       -4.59629056       8.28231506      15.85640289       10       0.00511498       0.00180043       0.04744775
C       -3.38419532       8.98147032      15.86769255       10      -0.00347958      -0.00475543       0.03369923
C        2.67784129      -0.11805972      15.86871757       10       0.00416972       0.00152198       0.05624384
C        3.88698693       0.58243025      15.86769246       10       0.00224409       0.00318339       0.02563384
C        1.47383557       1.97784142      15.85829604       10      -0.00006361      -0.00079534       0.04151239
C        2.67835823       2.68195294      15.84923591       10      -0.00081145      -0.00033902       0.02466208
C        0.25538127       4.08351889      15.81543602       10       0.00230086       0.00366460       0.01614978
C        1.46265306       4.78194771      15.82710597       10       0.00392325       0.00087556       0.00038060
C       -0.96129378       6.19346236      15.85829528       10      -0.00003130       0.00272747       0.02442852
C        0.25145753       6.88494892      15.84923601       10       0.00077397       0.00207294       0.02605689
C       -2.17291105       8.28473685      15.86871778       10       0.00095406       0.00153795       0.05181257
C       -0.96214963       8.98190076      15.86769255       10       0.00183805       0.00052960       0.02091453
C        5.09556676      -0.11784046      15.86871757       10      -0.00075415       0.00269600       0.03258800
C        6.30763252       0.58206900      15.86668406       10      -0.00063012      -0.00177546       0.00560293
C        3.88679423       1.98157172      15.85640276       10       0.00006229       0.00265328       0.02458106
C        5.09508823       2.68303500      15.84923591       10       0.00145566      -0.00045474       0.02228382
C        2.67597530       4.08105098      15.83535241       10       0.00321646      -0.00040794       0.04040142
C        3.88651536       4.78304692      15.83256455       10       0.00170248       0.00247399       0.00420957
C        1.46162868       6.18334683      15.83535231       10       0.00037102       0.00051103       0.03534735
C        2.67538731       6.88153210      15.83256444       10      -0.00180495       0.00243076       0.01255404
C        0.24920327       8.28295940      15.85640289       10       0.00282718       0.00297683       0.02331223
C        1.46101146       8.97943165      15.84923576       10       0.00244037       0.00097787       0.01917679
C        7.51374009      -0.11962111      15.85829583       10      -0.00117468       0.00225030      -0.01625892
C        8.72983328       0.58274148      15.84156371       10      -0.00049967       0.00137314       0.09225750
C        6.29984661       1.97812332      15.85829604       10       0.00187828      -0.00131896      -0.01881926
C        7.51560482       2.67934087      15.84156390       10       0.00156885       0.00259330       0.06021549
C        5.09815011       4.08114836      15.83535241       10       0.00112165      -0.00019926       0.00762887
C        6.31006254       4.78336910      15.82710597       10       0.00064499       0.00018737      -0.00312252
C        3.88735100       6.18218320      15.82948655       10      -0.00042492       0.00376779       0.01629602
C        5.09862817       6.88205292      15.83256444       10       0.00208595      -0.00053600       0.01375851
C        2.67364951       8.28195233      15.83535214       10       0.00011407       0.00166515       0.02908539
C        3.88705534       8.98228431      15.82710556       10       0.00196460      -0.00331647      -0.00690097
C        9.94717244      -0.11899672      15.81543597       10       0.00401069       0.00355304       0.01550848
C       11.16623626       0.58047486      15.84156371       10      -0.00559958      -0.00087899       0.07561882
C        8.70451290       1.96862302      15.83392516       10       0.00261483       0.00287781       0.34881118
C        9.94574354       2.68687924      15.58956590       10       0.00274210       0.00075756      -1.28073943
C        7.51800711       4.08556406      15.81543602       10       0.00252224       0.00349559      -0.06114419
C        8.73423244       4.79185938      15.84156134       10      -0.00106057       0.00364838       0.10308535
C        6.31142146       6.18412132      15.83535231       10       0.00231455      -0.00038701       0.03965159
C        7.52106121       6.88519817      15.84923601       10      -0.00162162       0.00418046       0.03665846
C        5.10006845       8.28155921      15.83535214       10       0.00491257       0.00169538       0.06189225
C        6.31349100       8.97900337      15.84923576       10      -0.00663191      -0.00091331       0.04344549
O       10.02459047       2.62535387      14.11776760       11      -0.00064429       0.00308122       0.00129065
H        9.37651505       3.22965754      13.65283995       12       0.00506560       0.00532900       0.00159306
