132
Lattice="12.12 0.0 0.0 -6.06 10.496227893867395 0.0 0.0 0.0 40.0" Properties=species:S:1:pos:R:3:tags:I:1:forces:R:3 stress="0.002834435443973665 3.1264687964223454e-06 -2.7374866682841922e-06 3.1264687964223454e-06 0.002838433865706302 4.045602065076066e-06 -2.7374866682841922e-06 4.045602065076066e-06 0.002109926874258216" energy=-1209.3122565148844 pbc="T T F"
C       -0.00118193       0.00737479      10.00423070        2      -0.00073051       0.00023992       0.00082572
Ti      -0.00107457       1.75612791       8.71574114        0      -0.00001983       0.00036356      -0.00136466
Ti       1.51358157       0.88186692      11.29139969        0       0.00006316       0.00045219      -0.00013258
O        0.00067066       1.75629706      12.23008024        3       0.00132307      -0.00071764       0.08971996
O        1.51256416       0.88230255       7.77262566        1      -0.00331186       0.00223643       0.00156434
C       -1.51658313       2.63134443      10.00783858        2       0.00037981       0.00034201       0.00254564
Ti      -1.51653323       4.38084854       8.71453025        0       0.00050307       0.00135541      -0.00034201
Ti      -0.00418164       3.50626135      11.30258609        0      -0.00184414      -0.00030237      -0.00067795
O       -1.51733430       4.38348396      12.23008024        3       0.00102834       0.00206684       0.08560171
O       -0.00233472       3.50540754       7.77568423        1      -0.00157193       0.00106581      -0.00124259
C       -3.03187319       5.25671914      10.00328882        2      -0.00035347      -0.00059235       0.00218228
Ti      -3.03171917       7.00503943       8.71097097        0       0.00046196       0.00233496       0.00048505
Ti      -1.51716111       6.13068924      11.29297813        0      -0.00074052      -0.00045061       0.00044324
O       -3.03218302       7.00499706      12.23008024        3      -0.00133798       0.00120639       0.10478895
O       -1.51662077       6.12902786       7.77274158        1       0.00006210      -0.00189125       0.00184320
C       -4.54666514       7.87981237      10.00140319        2      -0.00017936       0.00060189       0.00095150
Ti      -4.54660442       9.62870447       8.71089793        0       0.00007797       0.00078503       0.00346386
Ti      -3.03172511       8.75414587      11.29147947        0       0.00017442      -0.00010038      -0.00022857
O       -4.54636317       9.62818962      12.23008024        3       0.00006503      -0.00104124       0.11176047
O       -3.03184921       8.75436148       7.77121512        1      -0.00222870      -0.00094680      -0.00059596
C        3.02870840       0.00701000      10.00156720        2       0.00057774       0.00020462       0.00049739
Ti       3.02841174       1.75659200       8.71099941        0      -0.00054082      -0.00026453       0.00235003
Ti       4.54329419       0.88195272      11.29173446        0       0.00110505       0.00057235      -0.00078201
O        3.02892437       1.75688056      12.23008024        3       0.00057820       0.00139726       0.09396498
O        4.54344022       0.88214225       7.77159316        1      -0.00036314       0.00226615      -0.00163954
C        1.51370359       2.63104182      10.00366339        2      -0.00009154       0.00037752       0.00081858
Ti       1.51287153       4.38023718       8.71321076        0       0.00048752       0.00062848       0.00099330
Ti       3.02800881       3.50582770      11.29186941        0      -0.00030965       0.00023292       0.00007837
O        1.51585709       4.38266523      12.23008024        3       0.00135497       0.00099561       0.11543558
O        3.02782204       3.50607141       7.77226219        1      -0.00065985       0.00085236       0.00057886
C       -0.00180432       5.25558990      10.00397229        2       0.00008117       0.00000472       0.00136008
Ti      -0.00180214       7.00475111       8.71144315        0      -0.00020398       0.00129221       0.00194687
Ti       1.51293209       6.13037777      11.29166983        0      -0.00075622       0.00001739       0.00059237
O       -0.00106713       7.00602015      12.23008024        3       0.00026479       0.00038125       0.11565310
O        1.51307597       6.12959476       7.77247211        1      -0.00033586       0.00011712       0.00148568
C       -1.51695913       7.88030604      10.00125967        2       0.00002872       0.00131141       0.00023790
Ti      -1.51659677       9.62882079       8.71132770        0      -0.00144702       0.00038277      -0.00266539
Ti      -0.00196711       8.75451230      11.29147131        0       0.00109543       0.00039973      -0.00129204
O       -1.51669430       9.62842294      12.23008024        3       0.00045475       0.00092241       0.10801615
O       -0.00125087       8.75432131       7.77210171        1       0.00213085      -0.00150366      -0.00136725
C        6.05723501       0.00720930      10.00188036        2      -0.00124376      -0.00043221      -0.00061680
Ti       6.05816272       1.75647594       8.71163008        0      -0.00204277      -0.00112721       0.00042299
Ti       7.57250368       0.88257939      11.29333821        0       0.00161725       0.00162157       0.00164193
O        6.05755807       1.75801161      12.23008024        3      -0.00097787       0.00053300       0.11274534
O        7.57446830       0.88242409       7.77361210        1       0.00177330       0.00152357       0.00181911
C        4.54297607       2.63109947      10.00154327        2       0.00027902       0.00020965       0.00056447
Ti       4.54321615       4.38064819       8.71151086        0      -0.00053491       0.00023235       0.00035600
Ti       6.05802258       3.50585711      11.29075573        0      -0.00045312       0.00097264       0.00004486
O        4.54369903       4.38101946      12.23008024        3      -0.00071522       0.00118981       0.11121456
O        6.05863598       3.50621208       7.77239166        1       0.00123262      -0.00003011       0.00070090
C        3.02820159       5.25531395      10.00224717        2       0.00003278       0.00095331      -0.00067392
Ti       3.02801322       7.00499505       8.71172212        0       0.00099192       0.00008189       0.00090647
Ti       4.54323077       6.13034340      11.29291929        0      -0.00058401       0.00040071      -0.00175220
O        3.02802948       7.00457448      12.23008024        3      -0.00017689       0.00006109       0.11561512
O        4.54308832       6.13023188       7.77241665        1       0.00066757      -0.00020568      -0.00261832
C        1.51311889       7.87964555      10.00182999        2      -0.00001942       0.00094630       0.00089897
Ti       1.51336107       9.62898820       8.71203509        0      -0.00194500      -0.00027946       0.00117512
Ti       3.02756242       8.75505804      11.29284917        0      -0.00003291       0.00068322       0.00017356
O        1.51170136       9.62753942      12.23008024        3       0.00026761      -0.00001371       0.11265055
O        3.02869701       8.75487927       7.77326221        1      -0.00030397       0.00143358       0.00032492
C        9.08814456       0.00799406      10.00573718        2       0.00038712       0.00047180       0.00056077
Ti       9.08839667       1.75652908       8.71576897        0      -0.00077601      -0.00017808       0.00099367
Ti      10.60189055       0.88500090      11.30471390        0      -0.00116435       0.00183371       0.00075871
O        9.08477497       1.75978151      12.23008024        3      -0.00160836      -0.00355497       0.09684703
O       10.60330278       0.88251669       7.77636903        1      -0.00183294       0.00216063      -0.00089363
C        7.57282418       2.63133349      10.00391703        2      -0.00044366       0.00094258       0.00202445
Ti       7.57329970       4.38081163       8.71261418        0       0.00003679       0.00055133       0.00114116
Ti       9.08969383       3.50694253      11.29788877        0      -0.00038207       0.00070878       0.00062963
O        7.57123412       4.38115040      12.23008024        3      -0.00076104       0.00150327       0.12574696
O        9.08886806       3.50553312       7.77515145        1       0.00073243       0.00021220       0.00224813
C        6.05833099       5.25563345      10.00214196        2      -0.00055554       0.00055240      -0.00027237
Ti       6.05818744       7.00490334       8.71159984        0       0.00022691       0.00107226      -0.00021369
Ti       7.57342550       6.13120563      11.29058774        0      -0.00148830       0.00033932       0.00054294
O        6.05798033       7.00511997      12.23008024        3      -0.00072962      -0.00057821       0.09331915
O        7.57304325       6.12976107       7.77203482        1       0.00121247      -0.00032770       0.00087043
C        4.54318337       7.87978661      10.00264153        2      -0.00042944       0.00033992      -0.00091561
Ti       4.54347539       9.62939548       8.71438020        0       0.00025121       0.00045958       0.00015084
Ti       6.05810907       8.75486826      11.29199896        0      -0.00049736       0.00083224      -0.00007506
O        4.54305927       9.62666264      12.23008024        3       0.00033719      -0.00120966       0.10984998
O        6.05762190       8.75474953       7.77267385        1      -0.00027617       0.00044775       0.00019157
C        0.07035799       0.04579342      17.36163892       10      -0.00100765      -0.00193030      -0.02749264
C        1.27946411       0.74783640      17.37002715       10      -0.00027106      -0.00254015      -0.00282707
C       -1.12537098       2.13576514      17.33726825       10       0.00271926      -0.00102300       0.52159252
C        0.06678356       2.84548556      17.34490699       10       0.00356444       0.00003834       0.01348376
C       -2.36125090       4.27201885      17.33726270       10       0.00198318       0.00082530       0.21841932
C       -1.14967823       4.95031904      17.34490443       10       0.00102892       0.00131718       0.02134532
C       -3.57217674       6.35385334      17.36163837       10      -0.00177295       0.00182037      -0.00055470
C       -2.35961614       7.05024995      17.37002695       10      -0.00213770      -0.00166544      -0.00282389
C       -4.78301520       8.44691771      17.35974598       10       0.00160146       0.00229924      -0.01261649
C       -3.57137898       9.14656874      17.37103564       10       0.00129934      -0.00082022      -0.02762384
C        2.48993392       0.04889814      17.37206066       10       0.00145703      -0.00166799      -0.02328079
C        3.70032185       0.74939722      17.37103555       10      -0.00151486       0.00028397      -0.03799385
C        1.28243661       2.14603407      17.36163913       10       0.00184476      -0.00365769      -0.03279041
C        2.48963790       2.84862315      17.35257900       10       0.00049150      -0.00028645      -0.04192544
C        0.06345611       4.24792980      17.31877911       10       0.00091219      -0.00000930       0.13090633
C        1.27423000       4.94718232      17.33044906       10       0.00074654      -0.00171871      -0.08378784
C       -1.14745944       6.35283617      17.36163837       10       0.00047826       0.00241380      -0.00583021
C        0.06456627       7.04825892      17.35257910       10       0.00097096      -0.00129081      -0.03979740
C       -2.35956632       8.44847171      17.37206087       10       0.00140505      -0.00033343      -0.03939286
C       -1.14764498       9.14648377      17.37103564       10      -0.00124715      -0.00172729      -0.04060674
C        4.91073962       0.04886969      17.37206066       10      -0.00039074      -0.00209383      -0.03741793
C        6.12154873       0.74788956      17.37002715       10      -0.00100678       0.00046903       0.00415513
C        3.70007752       2.14861153      17.35974585       10      -0.00059375      -0.00287864      -0.01173393
C        4.91066822       2.84865164      17.35257900       10      -0.00179970      -0.00085476      -0.03242117
C        2.48774825       4.24797663      17.33869550       10      -0.00009545      -0.00012618      -0.05089346
C        3.69951286       4.94802771      17.33590764       10       0.00135567      -0.00139021      -0.01482658
C        1.27602050       6.34782179      17.33869540       10       0.00143354       0.00012878      -0.03972389
C        2.48790091       7.04761924      17.33590753       10       0.00215416      -0.00296583      -0.02189230
C        0.06392652       8.44679260      17.35974598       10      -0.00035309       0.00075386      -0.00857389
C        1.27554776       9.14546190      17.35257885       10      -0.00144347       0.00035557      -0.04972308
C        7.33154250       0.04644083      17.36163892       10       0.00000086      -0.00027886      -0.00956305
C        8.54522803       0.74954229      17.34490680       10       0.00075676       0.00042321       0.02397454
C        6.11814494       2.14629164      17.36163913       10      -0.00097464      -0.00206600       0.00197912
C        7.33321889       2.84610305      17.34490699       10      -0.00141919       0.00111476       0.00240242
C        4.91166784       4.24815446      17.33869550       10      -0.00033631      -0.00242512      -0.04640404
C        6.12523568       4.94747857      17.33044906       10      -0.00051099      -0.00190182      -0.05341226
C        3.69987018       6.34774786      17.33282964       10       0.00170632       0.00092471      -0.05146731
C        4.91205998       7.04785814      17.33590753       10       0.00229624      -0.00205220      -0.02162275
C        2.48816715       8.44700735      17.33869523       10      -0.00212539      -0.00103611      -0.05057373
C        3.70040913       9.14894299      17.33044865       10      -0.00003647      -0.00293024      -0.06718352
C        9.76067201       0.05087349      17.31877906       10       0.00036542      -0.00204240       0.12731568
C       10.97674436       0.74887189      17.34490680       10       0.00139453      -0.00037800       0.02009762
C        8.52646731       2.13731692      17.33726825       10       0.00022005      -0.00062032       0.26346700
C        9.75824935       2.84860362      17.09290899       10       0.00096403       0.00087434      -2.05809932
C        7.33585754       4.24831355      17.31877911       10       0.00181318      -0.00009364       0.12427409
C        8.54887644       4.95151827      17.34490443       10       0.00021703       0.00165364       0.00302483
C        6.12432148       6.34817988      17.33869540       10       0.00019415      -0.00076138      -0.03737310
C        7.33599445       7.04850521      17.35257910       10      -0.00263894       0.00086427      -0.03800363
C        4.91270048       8.44731284      17.33869523       10      -0.00011287      -0.00066848      -0.04901285
C        6.12563054       9.14521558      17.35257885       10       0.00077581      -0.00142670      -0.03366356
O        9.84548986       2.81018066      15.51064299       11      -0.00239316       0.00049017      -0.00039971
H        9.02166609       3.15752700      15.12362815       12       0.00268847      -0.00231836      -0.00006176
