131
Lattice="12.12 0.0 0.0 -6.06 10.496227893867395 0.0 0.0 0.0 40.0" Properties=species:S:1:pos:R:3:tags:I:1:forces:R:3 stress="0.00288718975695263 -2.0223269091407076e-07 2.950853366017621e-06 -2.0223269091407076e-07 0.0028868755818013247 -1.7512456667027514e-06 2.950853366017621e-06 -1.7512456667027514e-06 0.002119097009151402" energy=-1204.6659980343945 pbc="T T F"
C       -0.00006731      -0.00008307      10.00397315        2       0.00058621      -0.00035864      -0.00134117
Ti       0.00065012       1.74892149       8.71233425        0       0.00061853      -0.00007952       0.00031731
Ti       1.51612990       0.87518913      11.29519920        0       0.00036425      -0.00083673       0.00007295
O       -0.00107125       1.74969691      12.23008024        3       0.00075906      -0.00019254       0.12680187
O        1.51647244       0.87221748       7.77657362        1      -0.00008767       0.00109724      -0.00119720
C       -1.51474205       2.62383095      10.00205019        2       0.00049382      -0.00003016       0.00013114
Ti      -1.51481663       4.37391837       8.71317725        0       0.00058263      -0.00005539       0.00034721
Ti       0.00081208       3.49865099      11.29197713        0       0.00038504       0.00011494      -0.00044240
O       -1.51396519       4.36937813      12.23008024        3       0.00045036       0.00021738       0.12736362
O       -0.00037726       3.49862092       7.77272100        1       0.00068853      -0.00014131       0.00056549
C       -3.02971195       5.24713970      10.00569925        2       0.00029411       0.00029918      -0.00136139
Ti      -3.02993558       6.99798155       8.72205190        0       0.00048278      -0.00033864      -0.00417580
Ti      -1.51369600       6.12303002      11.30213635        0      -0.00051276       0.00072642       0.00076343
O       -3.03097370       6.98965101      12.23008024        3       0.00033294      -0.00004297       0.10143392
O       -1.51607351       6.12496870       7.77829114        1       0.00117388      -0.00144726      -0.00162915
C       -4.54429358       7.87179306      10.01222428        2       0.00103339       0.00015374      -0.00315984
Ti      -4.54399815       9.62087837       8.72079850        0       0.00035285      -0.00021038      -0.00384135
Ti      -3.02699794       8.74533398      11.33064659        0       0.00022088      -0.00006873      -0.00245654
O       -4.55151999       9.62476881      12.23008024        3      -0.00007613       0.00009066       0.13433846
O       -3.02914442       8.74651906       7.78388741        1       0.00010981      -0.00017431      -0.00564890
C        3.03066644      -0.00060351      10.01267665        2       0.00042213      -0.00092694      -0.00333916
Ti       3.03029062       1.74946095       8.71448082        0       0.00050501      -0.00079615       0.00036256
Ti       4.54536436       0.87534484      11.29743065        0       0.00010399      -0.00136994       0.00049849
O        3.02966963       1.75271242      12.23008024        3       0.00018605      -0.00089621       0.10577788
O        4.54429325       0.87169109       7.77740169        1       0.00079413       0.00126967      -0.00139807
C        1.51513389       2.62450202      10.00266973        2       0.00085028      -0.00015036      -0.00004474
Ti       1.51501045       4.37327989       8.71178447        0       0.00053415       0.00002046      -0.00060015
Ti       3.03023778       3.49944225      11.29182410        0       0.00051065      -0.00036691      -0.00024999
O        1.51557231       4.37352153      12.23008024        3       0.00039774      -0.00005262       0.11942549
O        3.02991777       3.49687144       7.77270630        1       0.00040767       0.00069647       0.00036394
C        0.00074555       5.24729291      10.00378617        2       0.00043412       0.00028917      -0.00032495
Ti       0.00035956       6.99732626       8.71623376        0      -0.00001070       0.00002616       0.00012819
Ti       1.51640003       6.12206046      11.29180242        0       0.00013155      -0.00008831      -0.00007873
O        0.00460986       6.99479081      12.23008024        3      -0.00010219       0.00005650       0.10511823
O        1.51319040       6.12379009       7.77352874        1       0.00134227      -0.00073512       0.00035636
C       -1.51489123       7.87214002      10.01447410        2      -0.00028608       0.00017102      -0.00364496
Ti      -1.51540047       9.62122238       8.72247331        0       0.00050473      -0.00027065      -0.00441626
Ti       0.00043389       8.74578632      11.30297894        0      -0.00097275       0.00004299       0.00077199
O       -1.50878897       9.62591451      12.23008024        3       0.00014867      -0.00018007       0.09327897
O       -0.00246977       8.74686461       7.77853792        1       0.00184785      -0.00035214      -0.00174209
C        6.06102379       0.00035677      10.00623242        2      -0.00012141      -0.00045287      -0.00151008
Ti       6.05984940       1.74909421       8.71280267        0       0.00008446      -0.00015648       0.00049509
Ti       7.57549169       0.87484234      11.29245717        0       0.00011099      -0.00048151      -0.00027303
O        6.06289798       1.75218683      12.23008024        3       0.00001511      -0.00017372       0.11870649
O        7.57446529       0.87404533       7.77293154        1       0.00070223       0.00002255       0.00032617
C        4.54540153       2.62511681      10.00264286        2      -0.00008099      -0.00036758      -0.00009883
Ti       4.54528342       4.37325113       8.71149249        0       0.00026827      -0.00016396      -0.00129548
Ti       6.05985783       3.49890083      11.29172516        0       0.00012743      -0.00018379      -0.00047518
O        4.54552982       4.37331789      12.23008024        3       0.00068727      -0.00042094       0.10667834
O        6.06074512       3.49819320       7.77242953        1       0.00011581      -0.00001003       0.00069018
C        3.03044426       5.24782194      10.00127266        2       0.00052074      -0.00028920       0.00070212
Ti       3.03011730       6.99756475       8.71169658        0       0.00023636      -0.00042808      -0.00058080
Ti       4.54429093       6.12220952      11.29176674        0       0.00060074      -0.00018810      -0.00025667
O        3.03010461       6.99740572      12.23008024        3       0.00028803      -0.00020569       0.11522089
O        4.54640565       6.12368103       7.77250170        1      -0.00034488      -0.00064180       0.00043079
C        1.51610750       7.87197711      10.00383504        2      -0.00006767      -0.00052809      -0.00039420
Ti       1.51466374       9.62119948       8.71336916        0       0.00029704      -0.00048711       0.00035014
Ti       3.03036437       8.74634452      11.29186021        0       0.00013511      -0.00050594      -0.00044978
O        1.51920946       9.62287096      12.23008024        3       0.00004696      -0.00066397       0.12373683
O        3.02976603       8.74729832       7.77269805        1       0.00049020      -0.00051709       0.00060639
C        9.09032292       0.00000748      10.00205444        2       0.00023735      -0.00047615       0.00011217
Ti       9.09016650       1.74928588       8.71134766        0       0.00033111      -0.00018589      -0.00079615
Ti      10.60529497       0.87441744      11.29239872        0       0.00013349      -0.00013861      -0.00022165
O        9.09075544       1.74921911      12.23008024        3       0.00012065      -0.00015571       0.10242484
O       10.60571075       0.87432168       7.77229401        1       0.00010261      -0.00006128       0.00029623
C        7.57541451       2.62391445      10.00190019        2       0.00009925      -0.00014176       0.00005280
Ti       7.57520124       4.37366475       8.71251879        0       0.00015514       0.00002645       0.00064175
Ti       9.09030010       3.49842365      11.29234218        0       0.00032557      -0.00005177      -0.00025777
O        7.57448693       4.37021809      12.23008024        3       0.00006527       0.00006972       0.11569323
O        9.09035308       3.49947528       7.77275118        1       0.00032343      -0.00060861       0.00038855
C        6.05926974       5.24728146      10.00226725        2       0.00024070       0.00026207       0.00001800
Ti       6.06003778       6.99716485       8.71401336        0       0.00093027      -0.00001722       0.00046350
Ti       7.57427150       6.12217578      11.29620350        0       0.00118118       0.00053405       0.00047210
O        6.05655902       6.99524346      12.23008024        3       0.00081876       0.00021713       0.10778520
O        7.57724065       6.12489694       7.77691836        1      -0.00072160      -0.00133908      -0.00113515
C        4.54455803       7.87179218      10.00240206        2       0.00058510      -0.00066776      -0.00000564
Ti       4.54566601       9.62125228       8.71214686        0       0.00035234      -0.00058530       0.00034407
Ti       6.05956596       8.74526090      11.29455156        0       0.00108778       0.00022301       0.00020967
O        4.54412686       9.62213443      12.23008024        3       0.00054603      -0.00058544       0.11378083
O        6.06286163       8.74693920       7.77629179        1      -0.00102467      -0.00056190      -0.00110557
C        0.04097376       0.07006992      17.33098465       10       0.00600906       0.00115774       0.00204675
C        1.25152776       0.76962158      17.31569260       10      -0.00065548      -0.00145334       0.02316274
C       -1.16888122       2.16828145      17.33630535       10      -0.00193381       0.00198843      -0.02057161
C        0.04296668       2.86806059      17.31859492       10      -0.00137163       0.00137938      -0.00072783
C       -2.38076990       4.26556794      17.33098465       10      -0.00456822       0.00164620      -0.00750079
C       -1.16990446       4.96438924      17.31569260       10      -0.00117509       0.00110162       0.01497395
C       -3.58788845       6.36812031      17.26787390       10      -0.00338126       0.00138830      -0.02719600
C       -2.38103999       7.05043485      17.22605168       10       0.00049248      -0.00056068      -0.46943431
C       -4.80182621       8.46971587      17.26787390       10       0.00294374      -0.00008784      -0.02947712
C       -3.60785222       9.17442634      17.22605168       10      -0.00148575      -0.00152524      -0.44764672
C        2.46525249       0.06451290      17.26787390       10       0.00261755      -0.00231401      -0.03294421
C        3.67886941       0.76687821      17.23579522       10       0.00345355       0.00241543       0.16715539
C        1.25450376       2.16773794      17.30464963       10       0.00049024      -0.00054115      -0.02994896
C        2.46677302       2.86673969      17.28273522       10      -0.00055404       0.00107185      -0.04891488
C        0.04227288       4.26750069      17.30464963       10       0.00013082      -0.00071055      -0.03721278
C        1.25401516       4.96727313      17.28273522       10      -0.00250025       0.00069544      -0.04966702
C       -1.17398500       6.36827092      17.26787390       10       0.00095553       0.00177595      -0.02854203
C        0.04154737       7.06727084      17.23579522       10      -0.00057436      -0.00116736       0.13796654
C       -2.38204096       8.46647108      16.77324602       10       0.00115862      -0.00218613       0.21234727
C       -1.15526044       9.17361788      17.22605168       10       0.00025205       0.00264210      -0.47047256
C        4.89213606       0.06380974      17.26787390       10      -0.00047781      -0.00328033      -0.02726466
C        6.10611529       0.76888631      17.31569260       10       0.00044530       0.00221614       0.02325747
C        3.67926750       2.16418029      17.26812893       10      -0.00254038       0.00196288      -0.09290389
C        4.89191443       2.86654279      17.28273522       10      -0.00159981       0.00086436      -0.05044781
C        2.46655576       4.26689011      17.28005361       10      -0.00241369       0.00034205      -0.00981941
C        3.67944156       4.96690445      17.27505284       10      -0.00134668       0.00178777      -0.04319727
C        1.25169924       6.36850977      17.26812893       10       0.00024293       0.00002853      -0.09320466
C        2.46637297       7.06702796      17.28273522       10       0.00055237       0.00156838      -0.05056535
C        0.03909829       8.46940469      17.26787390       10      -0.00099202      -0.00180759      -0.03072408
C        1.25696432       9.16766665      17.31569260       10      -0.00069104       0.00474276       0.01377940
C        7.31669011       0.06956042      17.33098465       10      -0.00177606      -0.00177026      -0.00474512
C        8.52806912       0.76905201      17.33792317       10      -0.00055054       0.00136015      -0.02224449
C        6.10385151       2.16713671      17.30464963       10      -0.00179525       0.00354408      -0.03307649
C        7.31538498       2.86766312      17.31859492       10      -0.00278014      -0.00066712      -0.00600021
C        4.89229471       4.26673799      17.28005361       10      -0.00130428       0.00169333      -0.01533781
C        6.10465036       4.96721419      17.28273522       10      -0.00254798       0.00140742      -0.04682131
C        3.67926697       6.36727826      17.28005361       10      -0.00191853      -0.00007524      -0.01202589
C        4.89197542       7.06718768      17.28273522       10      -0.00097951       0.00153526      -0.04799137
C        2.46661675       8.46634396      17.30464963       10      -0.00328485      -0.00139453      -0.04000164
C        3.67889433       9.16549437      17.31859492       10      -0.00038795       0.00297739      -0.00144690
C        9.73892411       0.06871748      17.33630535       10       0.00189559      -0.00005102      -0.02730286
C       10.94972900       0.76939985      17.33792317       10      -0.00126531      -0.00172264      -0.01494124
C        8.52724224       2.16798978      17.33630535       10      -0.00342299       0.00274229      -0.02096393
C        9.73911727       2.86674488      17.33792317       10       0.00228052      -0.00109658      -0.02353101
C        7.31614117       4.26714567      17.30464963       10      -0.00270031       0.00054989      -0.03976515
C        8.52822793       4.96423347      17.31569260       10       0.00239752      -0.00050107       0.02435709
C        6.10672966       6.36859266      17.26812893       10      -0.00149952      -0.00224996      -0.09481573
C        7.31665941       7.06747844      17.23579522       10       0.00030158      -0.00220470       0.16619789
C        4.89126233       8.46656282      17.30464963       10       0.00131876      -0.00044707      -0.03366601
C        6.10063539       9.16823605      17.31569260       10      -0.00309153      -0.00242563       0.02042965
O       -2.38839034       8.46998123      15.41876795       11       0.00362451      -0.00036763      -0.00150811
