130
Lattice="12.12 0.0 0.0 -6.06 10.496227893867395 0.0 0.0 0.0 40.0" Properties=species:S:1:pos:R:3:tags:I:1:forces:R:3 energy=-1199.8501840212268 stress="0.0028481787837944046 3.9183120179137145e-08 -8.521297899954827e-09 3.9183120179137145e-08 0.0028481224134031258 -3.374835107821883e-09 -8.521297899954827e-09 -3.374835107821883e-09 0.001827564658029768" pbc="T T F"
C        0.00000232       0.00000356      10.00087584        2      -0.00000926      -0.00000231       0.00090839
Ti       0.00000063       1.74937315       8.71008358        0       0.00000115      -0.00000787       0.00110666
Ti       1.51500761       0.87469335      11.29145542        0       0.00001620       0.00000491       0.00057116
O       -0.00005071       1.74968614      12.23008024        3       0.00001248      -0.00000238       0.04698870
O        1.51498355       0.87467966       7.77059065        1      -0.00002815      -0.00001260       0.00119722
C       -1.51500429       2.62406561      10.00075189        2      -0.00000915       0.00001647       0.00084661
Ti      -1.51500333       4.37342397       8.71002743        0       0.00000107      -0.00000827       0.00091573
Ti      -0.00000315       3.49877888      11.29137769        0      -0.00000330       0.00003624       0.00049999
O       -1.51510512       4.37357600      12.23008024        3       0.00000021       0.00001414       0.04571098
O        0.00000146       3.49870941       7.77055855        1       0.00000060      -0.00005537       0.00109469
C       -3.03000465       5.24811377      10.00065817        2      -0.00000820      -0.00000112       0.00075540
Ti      -3.03000662       6.99748385       8.71002304        0      -0.00000781       0.00000623       0.00090330
Ti      -1.51499281       6.12280787      11.29131410        0       0.00000808       0.00000421       0.00043006
O       -3.02995702       6.99734193      12.23008024        3       0.00002976      -0.00001082       0.04500019
O       -1.51500803       6.12279424       7.77052353        1      -0.00002075      -0.00001704       0.00098719
C       -4.54499504       7.87216193      10.00073588        2       0.00001129      -0.00001776       0.00083590
Ti      -4.54499888       9.62154328       8.71008029        0      -0.00000860       0.00000926       0.00109309
Ti      -3.02997461       8.74683790      11.29136659        0       0.00002975      -0.00002557       0.00049155
O       -4.54476028       9.62132059      12.23008024        3       0.00000180       0.00000211       0.04793373
O       -3.03002687       8.74687429       7.77055474        1      -0.00005140       0.00003278       0.00107961
C        3.03000524      -0.00000266      10.00075726        2       0.00002407      -0.00000965       0.00084555
Ti       3.02999315       1.74936824       8.71006213        0      -0.00001187      -0.00000653       0.00101358
Ti       4.54501992       0.87469042      11.29134032        0       0.00001028      -0.00001850       0.00047533
O        3.03021088       1.74947535      12.23008024        3       0.00000119       0.00000307       0.05023994
O        4.54498256       0.87469833       7.77054522        1      -0.00003414       0.00001280       0.00104598
C        1.51500055       2.62406294      10.00076740        2       0.00000802       0.00002357       0.00084625
Ti       1.51500292       4.37342404       8.71002870        0       0.00000084      -0.00000860       0.00092440
Ti       3.03001615       3.49876001      11.29134432        0      -0.00000430       0.00001840       0.00047944
O        1.51509521       4.37357505      12.23008024        3      -0.00000583       0.00002370       0.04689642
O        3.03000041       3.49872248       7.77054600        1      -0.00000789      -0.00003197       0.00104979
C        0.00000203       5.24814129      10.00067045        2      -0.00000108       0.00000916       0.00074299
Ti      -0.00000127       6.99748374       8.70998601        0      -0.00000044       0.00000088       0.00084929
Ti       1.51499209       6.12280904      11.29131642        0      -0.00000912       0.00001152       0.00043692
O       -0.00001975       6.99745992      12.23008024        3      -0.00000772       0.00000669       0.04208529
O        1.51500592       6.12279247       7.77052222        1       0.00001896      -0.00001968       0.00099109
C       -1.51497764       7.87216387      10.00067142        2       0.00000315      -0.00000739       0.00072862
Ti      -1.51500216       9.62154800       8.71002415        0      -0.00000816       0.00000465       0.00091497
Ti       0.00000173       8.74684516      11.29131926        0       0.00000248      -0.00001294       0.00043187
O       -1.51486162       9.62156367      12.23008024        3       0.00002311      -0.00002571       0.04682292
O       -0.00000261       8.74686516       7.77052139        1      -0.00000260       0.00002627       0.00098775
C        6.06000244      -0.00000830      10.00065436        2      -0.00000219       0.00000659       0.00075931
Ti       6.05999964       1.74937250       8.71002066        0      -0.00000181       0.00000141       0.00090848
Ti       7.57498756       0.87469028      11.29132926        0      -0.00001714      -0.00001471       0.00046623
O        6.06001889       1.74926190      12.23008024        3      -0.00000902       0.00001791       0.04315812
O        7.57501319       0.87469962       7.77053880        1       0.00002670       0.00001120       0.00102964
C        4.54502607       2.62407305      10.00071636        2      -0.00000603      -0.00000512       0.00077560
Ti       4.54499980       4.37342716       8.71001891        0      -0.00000016      -0.00000299       0.00091169
Ti       6.06000524       3.49874722      11.29133742        0      -0.00000681      -0.00000504       0.00046661
O        4.54491670       4.37349756      12.23008024        3       0.00002147      -0.00001284       0.04320727
O        6.06000050       3.49874315       7.77053084        1      -0.00000523      -0.00000084       0.00099265
C        3.02999992       5.24811895      10.00065534        2       0.00000296      -0.00000207       0.00076229
Ti       3.03000725       6.99748269       8.71001604        0       0.00000847       0.00000287       0.00089817
Ti       4.54500097       6.12278358      11.29132685        0      -0.00001965      -0.00000540       0.00046619
O        3.02999290       6.99735902      12.23008024        3      -0.00001811      -0.00000183       0.04481246
O        4.54501710       6.12280278       7.77053642        1       0.00002097       0.00001030       0.00102379
C        1.51498105       7.87216298      10.00067306        2      -0.00000321      -0.00000492       0.00072565
Ti       1.51500164       9.62154930       8.71001574        0       0.00000688       0.00000508       0.00090062
Ti       3.02997286       8.74683900      11.29135375        0      -0.00002796      -0.00001681       0.00048504
O        1.51489150       9.62159389      12.23008024        3      -0.00001579      -0.00002289       0.04547747
O        3.03002618       8.74687185       7.77054727        1       0.00004532       0.00002945       0.00106679
C        9.08999059      -0.00000654      10.00073016        2      -0.00001987       0.00000070       0.00083630
Ti       9.09000735       1.74936909       8.71005289        0       0.00001206      -0.00000610       0.00098554
Ti      10.60498728       0.87469371      11.29143698        0      -0.00002866       0.00000790       0.00056573
O        9.08981985       1.74943510      12.23008024        3      -0.00003038       0.00002206       0.04979594
O       10.60502166       0.87468116       7.77058468        1       0.00003382      -0.00000989       0.00117907
C        7.57497889       2.62407368      10.00071404        2      -0.00000302      -0.00000210       0.00075637
Ti       7.57500118       4.37342820       8.71001646        0      -0.00000194      -0.00000142       0.00090354
Ti       9.08998261       3.49875703      11.29133844        0      -0.00000289       0.00001462       0.00046954
O        7.57509095       4.37348055      12.23008024        3      -0.00002706      -0.00000763       0.04276196
O        9.08999830       3.49872685       7.77054103        1       0.00001139      -0.00002737       0.00103165
C        6.06000276       5.24808794      10.00071628        2       0.00000110       0.00000216       0.00075441
Ti       6.06000103       6.99749305       8.71004761        0      -0.00000038       0.00001356       0.00097397
Ti       7.57499984       6.12277837      11.29133156        0       0.00001291      -0.00000364       0.00046874
O        6.05998051       6.99733096      12.23008024        3      -0.00000490      -0.00002143       0.04959135
O        7.57498529       6.12280381       7.77053785        1      -0.00002027       0.00001804       0.00102183
C        4.54499096       7.87216381      10.00072464        2      -0.00001061      -0.00001688       0.00082050
Ti       4.54499982       9.62154306       8.71007369        0       0.00000815       0.00000649       0.00107321
Ti       6.05999855       8.74683896      11.29142673        0      -0.00000482      -0.00002962       0.00055377
O        4.54472766       9.62135731      12.23008024        3       0.00000495       0.00000377       0.04869653
O        6.06000396       8.74687859       7.77058148        1       0.00000595       0.00003873       0.00116828
C        0.04504246       0.06755123      17.98392639       10       0.00040167       0.00027008      -0.00590120
C        1.25704661       0.76731088      17.98392639       10      -0.00318934      -0.00133589      -0.00685944
C       -1.16695704       2.16672707      17.98392639       10       0.00021893       0.00203888      -0.01510271
C        0.04499467       2.86649271      17.98392639       10      -0.00009539      -0.00125618      -0.01745312
C       -2.37895260       4.26601140      17.98392639       10      -0.00096215       0.00054496      -0.02025881
C       -1.16701122       4.96575288      17.98392639       10       0.00083066      -0.00054794      -0.01888415
C       -3.59099472       6.36531185      17.98392639       10      -0.00094650       0.00158737      -0.02030865
C       -2.37905745       7.06507197      17.98392639       10       0.00080178      -0.00195953      -0.01869707
C       -4.80305840       8.46459747      17.98392639       10       0.00124555       0.00069975      -0.01639685
C       -3.59107876       9.16433375      17.98392639       10      -0.00075431      -0.00039795      -0.01834269
C        2.46897323       0.06755485      17.98392639       10       0.00150538       0.00000497      -0.01270724
C        3.68099988       0.76731535      17.98392639       10      -0.00222555      -0.00040621      -0.01728104
C        1.25694903       2.16675032      17.98392639       10       0.00204228       0.00162600      -0.01299916
C        2.46899448       2.86649633      17.98392639       10      -0.00207848       0.00012568      -0.01574211
C        0.04501952       4.26600379      17.98392639       10      -0.00084978       0.00019969      -0.01195704
C        1.25701785       4.96573731      17.98392639       10      -0.00098103       0.00154194      -0.01840846
C       -1.16700615       6.36527865      17.98392639       10      -0.00046189       0.00112288      -0.01554443
C        0.04497736       7.06501926      17.98392639       10       0.00112882      -0.00003075      -0.01487405
C       -2.37906969       8.46455914      17.98392639       10       0.00080047       0.00078290      -0.01228007
C       -1.16705494       9.16427628      17.98392639       10       0.00042767       0.00157510      -0.01777667
C        4.89298814       0.06753706      17.98392639       10       0.00000960      -0.00130676      -0.02023052
C        6.10501219       0.76733452      17.98392639       10       0.00076173      -0.00015426      -0.02078057
C        3.68093829       2.16676489      17.98392639       10       0.00138447       0.00006510      -0.01903631
C        4.89297332       2.86652744      17.98392639       10       0.00069062       0.00081511      -0.01076714
C        2.46895568       4.26603541      17.98392639       10       0.00093143      -0.00233039      -0.02026343
C        3.68101685       4.96574580      17.98392639       10      -0.00092972       0.00233256      -0.02040556
C        1.25699981       6.36529144      17.98392639       10      -0.00069607      -0.00080991      -0.01358777
C        2.46903815       7.06504535      17.98392639       10      -0.00137921      -0.00006714      -0.01785379
C        0.04497932       8.46451804      17.98392639       10      -0.00076325       0.00015538      -0.01220733
C        1.25699523       9.16429673      17.98392639       10      -0.00000479       0.00130689      -0.01741583
C        7.31705505       0.06755880      17.98392639       10      -0.00042039      -0.00156997      -0.02054767
C        8.52909856       0.76731538      17.98392639       10      -0.00080323      -0.00078401      -0.01835392
C        6.10501695       2.16679417      17.98392639       10      -0.00112093       0.00003598      -0.01661779
C        7.31703201       2.86654904      17.98392639       10       0.00046074      -0.00112322      -0.01079370
C        4.89296891       4.26605014      17.98392639       10       0.00099225      -0.00153794      -0.01616524
C        6.10498923       4.96579642      17.98392639       10       0.00084966      -0.00019849      -0.01002501
C        3.68097834       6.36531257      17.98392639       10       0.00208595      -0.00012177      -0.02063335
C        4.89305266       7.06507538      17.98392639       10      -0.00204465      -0.00162936      -0.01788605
C        2.46896823       8.46454931      17.98392639       10       0.00223395       0.00040726      -0.01173320
C        3.68103209       9.16430379      17.98392639       10      -0.00150847      -0.00000669      -0.01905634
C        9.74107997       0.06752313      17.98392639       10       0.00076002       0.00040168      -0.01447409
C       10.95307950       0.76728380      17.98392639       10      -0.00124183      -0.00069521      -0.00804503
C        8.52907112       2.16674514      17.98392639       10      -0.00079487       0.00196130      -0.01861440
C        9.74102036       2.86650622      17.98392639       10       0.00095468      -0.00158245      -0.01495566
C        7.31702018       4.26603777      17.98392639       10      -0.00082071       0.00054766      -0.01561705
C        8.52897733       4.96577988      17.98392639       10       0.00096729      -0.00054491      -0.01960313
C        6.10500667       6.36531835      17.98392639       10       0.00010876       0.00126300      -0.01811966
C        7.31696906       7.06510062      17.98392639       10      -0.00021635      -0.00203947      -0.01597953
C        4.89294566       8.46456631      17.98392639       10       0.00319978       0.00134008      -0.01609344
C        6.10496868       9.16431587      17.98392639       10      -0.00040516      -0.00027212      -0.00822342
