132
Lattice="12.12 0.0 0.0 -6.06 10.496227893867395 0.0 0.0 0.0 40.0" Properties=species:S:1:pos:R:3:tags:I:1:forces:R:3 stress="0.002806393291000644 -2.9233358748911307e-06 1.2304317563621505e-06 -2.9233358748911307e-06 0.0028001508809587564 -6.888028509815618e-06 1.2304317563621505e-06 -6.888028509815618e-06 0.002334982819744519" energy=-1209.942187615179 pbc="T T F"
C        0.00395082      -0.00196151       9.99549358        2       0.00039058      -0.00185253      -0.00079105
Ti       0.00143955       1.74971389       8.69092883        0       0.00040610      -0.00014726       0.00133301
Ti       1.51474641       0.87593904      11.30636465        0      -0.00007375      -0.00047139       0.00131714
O        0.00229270       1.74468049      12.23008024        3       0.00007151      -0.00014788       0.00233444
O        1.51375333       0.87698657       7.76748987        1      -0.00088849      -0.00020848      -0.00015833
C       -1.51472361       2.62516944      10.01348788        2       0.00099068      -0.00108391      -0.00073481
Ti      -1.51519437       4.37713188       8.69886749        0       0.00044329      -0.00104824      -0.00023129
Ti      -0.00432615       3.49711449      11.31786633        0      -0.00078739       0.00046236      -0.00086325
O       -1.51354685       4.37687749      12.23008024        3      -0.00023617      -0.00262680      -0.14414158
O       -0.00312816       3.50084908       7.77447132        1      -0.00043123      -0.00061440      -0.00073994
C       -3.03052850       5.25101473      10.00945640        2       0.00012612      -0.00010674      -0.00067255
Ti      -3.03123688       7.00012520       8.69602837        0       0.00019062      -0.00000787      -0.00067468
Ti      -1.51440098       6.12217510      11.31183188        0       0.00097063      -0.00264381       0.00094444
O       -3.03091800       7.00067750      12.23008024        3       0.00090911       0.00034209       0.00139617
O       -1.51666903       6.12254240       7.77349946        1      -0.00012993      -0.00150030      -0.00058023
C       -4.54537064       7.87489017      10.00166145        2      -0.00033720      -0.00122376      -0.00093046
Ti      -4.54580724       9.62167719       8.68947526        0       0.00040977      -0.00122636       0.00014331
Ti      -3.03130407       8.74912163      11.30476533        0      -0.00019476      -0.00039546       0.00135722
O       -4.54583726       9.62238016      12.23008024        3      -0.00027765      -0.00037228      -0.00027008
O       -3.03122627       8.74531162       7.76593026        1       0.00022336      -0.00212228      -0.00094139
C        3.02858820       0.00047899       9.99953628        2       0.00042324      -0.00104004      -0.00146871
Ti       3.02911776       1.75253405       8.69388557        0      -0.00006767      -0.00137639      -0.00001718
Ti       4.54444448       0.87480026      11.30480790        0       0.00009765      -0.00106214       0.00190361
O        3.02918763       1.74889555      12.23008024        3       0.00034168      -0.00111556      -0.01031786
O        4.54438067       0.87734958       7.76697842        1       0.00106057      -0.00092677      -0.00092012
C        1.51595989       2.62356484       9.99981903        2       0.00172478      -0.00091883      -0.00106906
Ti       1.51425600       4.37452569       8.69711803        0       0.00038974      -0.00031651       0.00050545
Ti       3.02741651       3.49789811      11.30820924        0       0.00080053      -0.00053407       0.00156969
O        1.51274690       4.37169269      12.23008024        3       0.00098135       0.00010421      -0.00299771
O        3.02937112       3.50220387       7.77058470        1      -0.00009646      -0.00134472      -0.00036818
C       -0.00029335       5.25049007      10.00476437        2       0.00118484       0.00087898      -0.00188147
Ti      -0.00055813       6.99894407       8.69456195        0       0.00058928      -0.00078842       0.00037334
Ti       1.51385913       6.12346893      11.30957601        0       0.00000860      -0.00025389       0.00078110
O        0.00040691       7.00057137      12.23008024        3       0.00049076       0.00025235       0.00148135
O        1.51382401       6.12306358       7.77098178        1       0.00049234      -0.00060363      -0.00141564
C       -1.51541389       7.87582653      10.00016663        2       0.00003081      -0.00079352      -0.00073261
Ti      -1.51696029       9.62226457       8.68964704        0      -0.00034816      -0.00168152      -0.00079098
Ti       0.00119137       8.75024713      11.30598228        0       0.00111471      -0.00044675       0.00119243
O       -1.51631018       9.62360054      12.23008024        3       0.00017103      -0.00065272      -0.03078734
O       -0.00111492       8.74617363       7.76593157        1      -0.00009359      -0.00048045      -0.00099694
C        6.05482231      -0.00277492       9.99591641        2       0.00002206      -0.00084384      -0.00091251
Ti       6.05710701       1.74885900       8.69314382        0      -0.00065459      -0.00139610       0.00115540
Ti       7.57529615       0.87558482      11.29523135        0       0.00238547       0.00046015       0.00186081
O        6.05830370       1.74486015      12.23008024        3       0.00115114      -0.00198032      -0.01983802
O        7.57544588       0.87818749       7.77119330        1       0.00096885       0.00016474       0.00143968
C        4.54323594       2.62392544      10.00215133        2       0.00060744      -0.00061726      -0.00022297
Ti       4.54428697       4.37521397       8.69666123        0      -0.00019916      -0.00013419       0.00154299
Ti       6.05902804       3.49558052      11.31774085        0      -0.00004042      -0.00073572       0.00145399
O        4.54231249       4.37307526      12.23008024        3       0.00173428      -0.00031406      -0.01876004
O        6.06108518       3.50043987       7.77486648        1       0.00100841      -0.00105493       0.00017675
C        3.02908869       5.24996928      10.00329624        2       0.00066199      -0.00004607      -0.00072728
Ti       3.02909166       6.99831445       8.69326450        0       0.00126297      -0.00069179       0.00204152
Ti       4.54372518       6.12351900      11.30929650        0       0.00133355      -0.00072744       0.00227401
O        3.03019879       7.00072615      12.23008024        3       0.00107674      -0.00020426      -0.01815213
O        4.54445335       6.12316304       7.77068874        1       0.00000848      -0.00122117      -0.00045610
C        1.51420225       7.87417390      10.00051055        2       0.00116826      -0.00060080      -0.00035584
Ti       1.51220022       9.62154430       8.68849696        0       0.00032451      -0.00116938       0.00202651
Ti       3.03028511       8.75139816      11.30625301        0      -0.00038804      -0.00057915       0.00189107
O        1.51478944       9.62432632      12.23008024        3       0.00076860       0.00154019      -0.01829166
O        3.02930222       8.74764089       7.76788305        1      -0.00029930      -0.00071785       0.00006779
C        9.08895811      -0.00152661      10.00000994        2       0.00013170      -0.00120601      -0.00009704
Ti       9.08943796       1.74973557       8.69790650        0       0.00017776       0.00036324       0.00076235
Ti      10.60836882       0.87386041      11.28687051        0       0.00093473      -0.00072516      -0.00025561
O        9.09371469       1.73952631      12.23008024        3       0.00255759       0.00056099       0.06087443
O       10.60320730       0.87859396       7.77018317        1      -0.00050320       0.00051222       0.00080529
C        7.57418567       2.62384448      10.01024572        2       0.00000675      -0.00039307       0.00020039
Ti       7.57337189       4.37580882       8.69988693        0       0.00011385      -0.00119467      -0.00006443
Ti       9.09343672       3.49897733      11.31482811        0      -0.00061411       0.00281030      -0.00741135
O        7.57137974       4.37472389      12.23008024        3      -0.00209415       0.00130380      -0.04732093
O        9.08944153       3.50022342       7.77994063        1       0.00055304      -0.00076649      -0.00370574
C        6.05834906       5.24910173      10.00527538        2      -0.00043851      -0.00013465      -0.00219526
Ti       6.05871549       6.99808237       8.69708290        0      -0.00132282      -0.00092412       0.00169006
Ti       7.57550852       6.12241600      11.31887260        0       0.00009713       0.00111563      -0.00031720
O        6.05890002       7.00108026      12.23008024        3       0.00002232      -0.00100054      -0.00623520
O        7.57484526       6.12199980       7.77461121        1       0.00033393      -0.00195143      -0.00128105
C        4.54429335       7.87377664      10.00054226        2      -0.00010993      -0.00108844      -0.00045451
Ti       4.54539964       9.62229156       8.68954663        0      -0.00053789      -0.00158684       0.00177961
Ti       6.05744801       8.74976230      11.30815461        0       0.00001249      -0.00091162       0.00093611
O        4.54654645       9.62373492      12.23008024        3      -0.00019995      -0.00135763      -0.00155437
O        6.05905461       8.74567653       7.76734754        1      -0.00032885      -0.00035664       0.00013055
C        0.06253644       0.07137097      16.62317738       10      -0.00567320      -0.00200617       0.01675587
C        1.26805280       0.77551724      16.63156561       10      -0.00090757       0.00195914       0.01191581
C       -1.13086642       2.15949497      16.59880671       10      -0.00092609       0.00514623       0.38057213
C        0.05663400       2.87331631      16.60644545       10       0.00000560       0.00113492       0.04646180
C       -2.36972991       4.31417972      16.59880116       10       0.00050024      -0.00046160       0.65247325
C       -1.15878230       4.98291975      16.60644289       10      -0.00072161       0.00038459       0.02352407
C       -3.58348611       6.38739729      16.62317683       10      -0.00249231       0.00086359       0.00367482
C       -2.37179239       7.08025337      16.63156541       10      -0.00077982      -0.00099597       0.00913044
C       -4.79435120       8.47581145      16.62128444       10      -0.00390799       0.00068703       0.01641159
C       -3.58303685       9.17528196      16.63257410       10       0.00441419       0.00518310       0.00431503
C        2.47942306       0.07604707      16.63359912       10      -0.00077400       0.00286061       0.02526609
C        3.68803737       0.77676493      16.63257401       10      -0.00123907       0.00265153       0.00513880
C        1.27258046       2.17134481      16.62317759       10      -0.00102100      -0.00019703       0.01870923
C        2.47818585       2.87582056      16.61411746       10       0.00065457      -0.00147372       0.01170059
C        0.05720116       4.27787618      16.58031757       10      -0.00413807      -0.00050619       0.00505296
C        1.26463350       4.97497616      16.59198752       10      -0.00415670      -0.00065197      -0.01195188
C       -1.15840426       6.38694425      16.62317683       10      -0.00089636       0.00041652       0.00491566
C        0.05359582       7.07770245      16.61411756       10      -0.00102139       0.00193770       0.01576344
C       -2.37165452       8.47909616      16.63359933       10       0.00049524      -0.00156221       0.02241444
C       -1.16044946       9.17559182      16.63257410       10      -0.00089157       0.00034794       0.00556396
C        4.89668285       0.07558690      16.63359912       10      -0.00215625       0.00025184       0.02134687
C        6.10847765       0.77603642      16.63156561       10      -0.00098681       0.00108389       0.02455793
C        3.68740209       2.17508956      16.62128431       10       0.00072634       0.00007840       0.00419647
C        4.89751500       2.87614893      16.61411746       10      -0.00025790      -0.00069375       0.02663878
C        2.47649905       4.27445651      16.60023396       10      -0.00107659      -0.00008983       0.00687979
C        3.68912951       4.97590263      16.59744610       10       0.00079611       0.00233525       0.00878929
C        1.26361550       6.37628947      16.60023386       10      -0.00090385       0.00141279       0.01449394
C        2.47747002       7.07504317      16.59744599       10       0.00090778       0.00129926       0.00360866
C        0.05137152       8.47508146      16.62128444       10      -0.00014896       0.00152919       0.01234048
C        1.26328166       9.17214292      16.61411731       10      -0.00020456       0.00118679       0.02888619
C        7.31430851       0.07043756      16.62317738       10       0.00098823       0.00054733       0.00460030
C        8.52953829       0.77325080      16.60644526       10       0.00190911       0.00140146       0.04627454
C        6.10313236       2.17105917      16.62317759       10      -0.00004914       0.00141675       0.02458131
C        7.31978815       2.87340609      16.60644545       10       0.00034492       0.00257233       0.04598314
C        4.89972824       4.27494333      16.60023396       10      -0.00005882      -0.00095510       0.01863238
C        6.11349050       4.97599914      16.59198752       10      -0.00060851      -0.00023258       0.00473144
C        3.68816014       6.37618159      16.59436810       10       0.00251176       0.00371986      -0.00641533
C        4.90082801       7.07547528      16.59744599       10       0.00121424       0.00270339       0.00287575
C        2.47545277       8.47526781      16.60023369       10      -0.00113672      -0.00017062       0.01932969
C        3.68900040       9.17461991      16.59198711       10      -0.00156481      -0.00031620      -0.01208378
C        9.74911981       0.07229027      16.58031752       10      -0.00054861      -0.00255339      -0.02987454
C       10.96721669       0.77394960      16.60644526       10       0.00409629       0.00500840       0.05636545
C        8.50578752       2.15828266      16.59880671       10       0.00060632       0.00236028       0.36197549
C        9.74584934       2.87405093      16.35444745       10       0.00145862       0.00300616      -1.81153028
C        7.32135582       4.27948978      16.58031757       10       0.00075439       0.00284664       0.00397120
C        8.53671879       4.98378873      16.60644289       10       0.00396506      -0.00002069       0.05309282
C        6.11354347       6.37759562      16.60023386       10      -0.00285289      -0.00049301       0.00437827
C        7.32360580       7.07842244      16.61411756       10      -0.00218841      -0.00143189       0.00755725
C        4.90251697       8.47542216      16.60023369       10      -0.00340014      -0.00148816       0.01977166
C        6.11398401       9.17235144      16.61411731       10       0.00206361       0.00127710       0.01907932
O        9.75798271       2.98450896      14.82157623       11      -0.00366520       0.00192458      -0.00035667
H        9.60023175       2.12285066      14.38653756       12       0.00017793       0.00266160       0.00187479
