130
Lattice="12.12 0.0 0.0 -6.06 10.496227893867395 0.0 0.0 0.0 40.0" Properties=species:S:1:pos:R:3:tags:I:1:forces:R:3 energy=-1199.7417731745188 stress="0.002853678790874622 3.554167348331293e-08 -3.5940870466862775e-10 3.554167348331293e-08 0.0028536255467585064 -9.863148765919821e-11 -3.5940870466862775e-10 -9.863148765919821e-11 0.001735469612273007" pbc="T T F"
C        0.00000000       0.00000002      10.00056382        2      -0.00000000      -0.00000015       0.00071860
Ti       0.00000001       1.74937132       8.70993354        0      -0.00000002      -0.00000002       0.00083295
Ti       1.51499999       0.87468566      11.29138600        0       0.00000045       0.00000050       0.00038786
O        0.00000002       1.74937136      12.23008024        3      -0.00000022      -0.00000044       0.01248099
O        1.51499998       0.87468565       7.77046080        1       0.00000006       0.00000009       0.00091413
C       -1.51499999       2.62405699      10.00056380        2      -0.00000002      -0.00000024       0.00071840
Ti      -1.51500001       4.37342831       8.70993346        0      -0.00000002       0.00000000       0.00083288
Ti      -0.00000003       3.49874261      11.29138594        0       0.00000042       0.00000066       0.00038825
O       -1.51499998       4.37342832      12.23008024        3      -0.00000022      -0.00000014       0.01248048
O       -0.00000002       3.49874261       7.77046077        1       0.00000007       0.00000007       0.00091419
C       -3.03000000       5.24811394      10.00056377        2      -0.00000001       0.00000015       0.00071835
Ti      -3.03000001       6.99748527       8.70993346        0      -0.00000002       0.00000003       0.00083302
Ti      -1.51499998       6.12279962      11.29138595        0       0.00000044      -0.00000002       0.00038802
O       -3.02999997       6.99748522      12.23008024        3      -0.00000019       0.00000020       0.01248070
O       -1.51500002       6.12279961       7.77046076        1       0.00000004      -0.00000000       0.00091411
C       -4.54499999       7.87217091      10.00056380        2      -0.00000000       0.00000023       0.00071856
Ti      -4.54500002       9.62154227       8.70993354        0      -0.00000003      -0.00000001       0.00083308
Ti      -3.03000001       8.74685656      11.29138598        0       0.00000045      -0.00000015       0.00038766
O       -4.54499997       9.62154224      12.23008024        3      -0.00000019      -0.00000008       0.01248117
O       -3.03000002       8.74685659       7.77046081        1       0.00000002       0.00000001       0.00091405
C        3.03000002       0.00000002      10.00056380        2      -0.00000026      -0.00000030       0.00071848
Ti       3.02999998       1.74937131       8.70993347        0      -0.00000005      -0.00000005       0.00083289
Ti       4.54499999       0.87468562      11.29138594        0       0.00000004       0.00000026       0.00038833
O        3.03000002       1.74937137      12.23008024        3      -0.00000024      -0.00000048       0.01248044
O        4.54499999       0.87468564       7.77046078        1      -0.00000000       0.00000007       0.00091422
C        1.51500001       2.62405701      10.00056377        2      -0.00000027      -0.00000039       0.00071834
Ti       1.51500001       4.37342828       8.70993342        0      -0.00000006      -0.00000001       0.00083290
Ti       3.02999997       3.49874263      11.29138591        0       0.00000002       0.00000043       0.00038874
O        1.51500001       4.37342832      12.23008024        3      -0.00000027      -0.00000018       0.01248006
O        3.02999999       3.49874261       7.77046073        1       0.00000002       0.00000004       0.00091432
C        0.00000001       5.24811395      10.00056375        2      -0.00000028      -0.00000000       0.00071826
Ti      -0.00000000       6.99748524       8.70993346        0      -0.00000004       0.00000004       0.00083297
Ti       1.51499999       6.12279962      11.29138592        0       0.00000001      -0.00000028       0.00038853
O        0.00000003       6.99748524      12.23008024        3      -0.00000026       0.00000018       0.01248047
O        1.51500000       6.12279961       7.77046073        1       0.00000003      -0.00000004       0.00091426
C       -1.51499999       7.87217091      10.00056377        2      -0.00000028       0.00000009       0.00071841
Ti      -1.51500000       9.62154222       8.70993350        0      -0.00000006      -0.00000003       0.00083297
Ti       0.00000001       8.74685658      11.29138596        0       0.00000003      -0.00000038       0.00038812
O       -1.51499997       9.62154223      12.23008024        3      -0.00000024      -0.00000012       0.01248069
O        0.00000000       8.74685659       7.77046077        1       0.00000000      -0.00000001       0.00091416
C        6.06000000      -0.00000000      10.00056378        2      -0.00000000      -0.00000015       0.00071831
Ti       6.06000000       1.74937132       8.70993348        0       0.00000002      -0.00000005       0.00083279
Ti       7.57500003       0.87468563      11.29138596        0      -0.00000047      -0.00000001       0.00038827
O        6.05999998       1.74937134      12.23008024        3       0.00000020      -0.00000024       0.01248019
O        7.57500002       0.87468565       7.77046080        1      -0.00000006       0.00000002       0.00091420
C        4.54500000       2.62405698      10.00056376        2       0.00000000      -0.00000025       0.00071819
Ti       4.54500001       4.37342829       8.70993345        0       0.00000003       0.00000002       0.00083280
Ti       6.06000001       3.49874263      11.29138593        0      -0.00000046       0.00000014       0.00038868
O        4.54499998       4.37342829      12.23008024        3       0.00000020       0.00000007       0.01247986
O        6.06000002       3.49874262       7.77046075        1      -0.00000007       0.00000001       0.00091429
C        3.02999999       5.24811393      10.00056374        2      -0.00000000       0.00000014       0.00071817
Ti       3.03000000       6.99748525       8.70993346        0       0.00000003       0.00000008       0.00083288
Ti       4.54500000       6.12279963      11.29138591        0      -0.00000048      -0.00000058       0.00038848
O        3.02999997       6.99748521      12.23008024        3       0.00000018       0.00000044       0.01248033
O        4.54500001       6.12279963       7.77046076        1      -0.00000004      -0.00000008       0.00091427
C        1.51500001       7.87217090      10.00056376        2      -0.00000001       0.00000024       0.00071830
Ti       1.51499999       9.62154222       8.70993349        0       0.00000001       0.00000001       0.00083284
Ti       3.03000001       8.74685656      11.29138595        0      -0.00000049      -0.00000067       0.00038807
O        1.51499998       9.62154220      12.23008024        3       0.00000019       0.00000014       0.01248067
O        3.03000003       8.74685661       7.77046079        1      -0.00000003      -0.00000007       0.00091417
C        9.08999999      -0.00000001      10.00056381        2       0.00000027       0.00000001       0.00071843
Ti       9.09000003       1.74937131       8.70993352        0       0.00000004      -0.00000002       0.00083282
Ti      10.60500001       0.87468564      11.29138600        0      -0.00000004       0.00000024       0.00038777
O        9.08999998       1.74937134      12.23008024        3       0.00000024      -0.00000018       0.01248080
O       10.60500001       0.87468566       7.77046082        1       0.00000001       0.00000003       0.00091408
C        7.57499999       2.62405697      10.00056378        2       0.00000028      -0.00000007       0.00071827
Ti       7.57500000       4.37342828       8.70993348        0       0.00000004       0.00000001       0.00083280
Ti       9.09000001       3.49874263      11.29138595        0      -0.00000004       0.00000040       0.00038818
O        7.57499997       4.37342828      12.23008024        3       0.00000025       0.00000011       0.01248036
O        9.09000001       3.49874261       7.77046079        1      -0.00000003       0.00000002       0.00091415
C        6.05999999       5.24811393      10.00056376        2       0.00000027       0.00000029       0.00071826
Ti       6.06000000       6.99748527       8.70993351        0       0.00000004       0.00000006       0.00083297
Ti       7.57500000       6.12279962      11.29138596        0       0.00000001      -0.00000032       0.00038798
O        6.05999997       6.99748522      12.23008024        3       0.00000025       0.00000047       0.01248063
O        7.57500001       6.12279962       7.77046079        1      -0.00000005      -0.00000006       0.00091412
C        4.54499998       7.87217090      10.00056379        2       0.00000027       0.00000039       0.00071845
Ti       4.54500002       9.62154226       8.70993352        0       0.00000003       0.00000002       0.00083293
Ti       6.06000000       8.74685661      11.29138602        0      -0.00000000      -0.00000043       0.00038758
O        4.54499997       9.62154221      12.23008024        3       0.00000024       0.00000017       0.01248113
O        6.06000001       8.74685660       7.77046082        1      -0.00000001      -0.00000004       0.00091408
C        0.04503644       0.06754840      18.23008024       10       0.00044099       0.00027947      -0.00490657
C        1.25706926       0.76732290      18.23008024       10      -0.00314303      -0.00132817      -0.00490693
C       -1.16699771       2.16677006      18.23008024       10       0.00018366       0.00203611      -0.00490681
C        0.04499481       2.86656129      18.23008024       10      -0.00012993      -0.00124176      -0.00490684
C       -2.37899075       4.26603718      18.23008024       10      -0.00097004       0.00053673      -0.00490686
C       -1.16701103       4.96579675      18.23008024       10       0.00084401      -0.00054430      -0.00490697
C       -3.59100015       6.36527461      18.23008024       10      -0.00091365       0.00156200      -0.00490678
C       -2.37902864       7.06505830      18.23008024       10       0.00083891      -0.00196369      -0.00490696
C       -4.80304420       8.46453797      18.23008024       10       0.00121710       0.00068790      -0.00490670
C       -3.59102139       9.16429850      18.23008024       10      -0.00077540      -0.00040727      -0.00490678
C        2.46902387       0.06756178      18.23008024       10       0.00154583       0.00001447      -0.00490672
C        3.68105668       0.76730403      18.23008024       10      -0.00217815      -0.00040884      -0.00490690
C        1.25698597       2.16679412      18.23008024       10       0.00201130       0.00162752      -0.00490682
C        2.46901947       2.86655251      18.23008024       10      -0.00210151       0.00012151      -0.00490689
C        0.04501116       4.26604830      18.23008024       10      -0.00084142       0.00020072      -0.00490686
C        1.25701376       4.96578304      18.23008024       10      -0.00096404       0.00152334      -0.00490701
C       -1.16701991       6.36527810      18.23008024       10      -0.00042425       0.00112178      -0.00490692
C        0.04497453       7.06502333      18.23008024       10       0.00116473      -0.00005714      -0.00490732
C       -2.37904212       8.46453005      18.23008024       10       0.00077764       0.00078245      -0.00490697
C       -1.16702334       9.16425438      18.23008024       10       0.00040752       0.00155086      -0.00490714
C        4.89302671       0.06755569      18.23008024       10       0.00004660      -0.00130789      -0.00490692
C        6.10501745       0.76731145      18.23008024       10       0.00077875      -0.00014099      -0.00490673
C        3.68099287       2.16679592      18.23008024       10       0.00135265       0.00006512      -0.00490710
C        4.89299804       2.86653452      18.23008024       10       0.00064128       0.00082049      -0.00490668
C        2.46899445       4.26606657      18.23008024       10       0.00093910      -0.00233123      -0.00490685
C        3.68100550       4.96576427      18.23008024       10      -0.00093907       0.00233121      -0.00490678
C        1.25700194       6.36529629      18.23008024       10      -0.00064120      -0.00082065      -0.00490683
C        2.46900711       7.06503488      18.23008024       10      -0.00135275      -0.00006495      -0.00490715
C        0.04498255       8.46451932      18.23008024       10      -0.00077873       0.00014094      -0.00490692
C        1.25697331       9.16427509      18.23008024       10      -0.00004665       0.00130796      -0.00490733
C        7.31702335       0.06757640      18.23008024       10      -0.00040749      -0.00155082      -0.00490683
C        8.52904212       0.76730073      18.23008024       10      -0.00077767      -0.00078253      -0.00490693
C        6.10502545       2.16680745      18.23008024       10      -0.00116475       0.00005727      -0.00490744
C        7.31701990       2.86655269      18.23008024       10       0.00042424      -0.00112195      -0.00490679
C        4.89298620       4.26604779      18.23008024       10       0.00096397      -0.00152321      -0.00490750
C        6.10498882       4.96578254      18.23008024       10       0.00084147      -0.00020079      -0.00490672
C        3.68098051       6.36527832      18.23008024       10       0.00210161      -0.00012158      -0.00490678
C        4.89301401       7.06503670      18.23008024       10      -0.00201131      -0.00162738      -0.00490691
C        2.46894335       8.46452676      18.23008024       10       0.00217826       0.00040876      -0.00490696
C        3.68097614       9.16426902      18.23008024       10      -0.00154587      -0.00001437      -0.00490681
C        9.74102142       0.06753229      18.23008024       10       0.00077548       0.00040730      -0.00490667
C       10.95304423       0.76729283      18.23008024       10      -0.00121715      -0.00068797      -0.00490695
C        8.52902865       2.16677248      18.23008024       10      -0.00083882       0.00196380      -0.00490722
C        9.74100016       2.86655622      18.23008024       10       0.00091359      -0.00156208      -0.00490692
C        7.31701104       4.26603408      18.23008024       10      -0.00084402       0.00054440      -0.00490757
C        8.52899077       4.96579366      18.23008024       10       0.00097009      -0.00053673      -0.00490680
C        6.10500519       6.36526956      18.23008024       10       0.00012989       0.00124174      -0.00490729
C        7.31699773       7.06506075      18.23008024       10      -0.00018358      -0.00203601      -0.00490686
C        4.89293075       8.46450790      18.23008024       10       0.00314305       0.00132806      -0.00490673
C        6.10496357       9.16428239      18.23008024       10      -0.00044097      -0.00027942      -0.00490690
