132
Lattice="12.12 0.0 0.0 -6.06 10.496227893867395 0.0 0.0 0.0 40.0" Properties=species:S:1:pos:R:3:tags:I:1:forces:R:3 stress="0.002891593366825914 2.4405665822311185e-06 3.0037670209677277e-07 2.4405665822311185e-06 0.0028806231216914778 5.068260974645553e-07 3.0037670209677277e-07 5.068260974645553e-07 0.0025421402712053854" energy=-1210.9750412945546 pbc="T T F"
C        0.00043681       0.00291613      10.00450911        2      -0.00018530       0.00040407      -0.00244427
Ti       0.00119104       1.75338990       8.71827017        0       0.00002861       0.00053296      -0.00118427
Ti       1.51520094       0.87857364      11.30206162        0      -0.00188545       0.00052173       0.00233467
O        0.00187829       1.74838514      12.23008024        3       0.00012366       0.00052137       0.01381736
O        1.51355008       0.87930778       7.77890609        1       0.00133382      -0.00019640       0.00038504
C       -1.51511302       2.62920584      10.01416542        2       0.00110640      -0.00007752      -0.00172094
Ti      -1.51351632       4.37745368       8.72130688        0       0.00029909      -0.00046716       0.00139144
Ti      -0.00307178       3.50159945      11.31590047        0       0.00108585      -0.00159027       0.00146339
O       -1.50756236       4.39039649      12.23008024        3      -0.00078345      -0.00134621      -0.19946517
O       -0.00146643       3.50227954       7.78227194        1       0.00017377       0.00055935       0.00041354
C       -3.02940417       5.25097427      10.01135442        2       0.00054056       0.00122520      -0.00163955
Ti      -3.02898192       7.00196557       8.71984280        0      -0.00046508       0.00138821      -0.00283433
Ti      -1.51316644       6.12432652      11.31051017        0      -0.00114916      -0.00070774      -0.00030320
O       -3.03093190       7.00465596      12.23008024        3       0.00087726       0.00025918       0.05949836
O       -1.51529105       6.12416011       7.78175581        1       0.00040798      -0.00003101      -0.00063734
C       -4.54423982       7.87617956      10.00444215        2       0.00023487       0.00020665      -0.00204579
Ti      -4.54445172       9.62465996       8.71567400        0       0.00123715      -0.00073269       0.00010486
Ti      -3.03002661       8.75128458      11.30047408        0      -0.00137463       0.00054680       0.00236487
O       -4.54471598       9.62479183      12.23008024        3       0.00050573       0.00045500       0.04510798
O       -3.02989348       8.74885882       7.77717191        1       0.00020705       0.00066267       0.00106785
C        3.03076921       0.00287184      10.00289665        2       0.00070153       0.00000159      -0.00154326
Ti       3.03062121       1.75241736       8.71666034        0       0.00124866       0.00050689       0.00100545
Ti       4.54407331       0.87795197      11.30220986        0      -0.00126828       0.00101141       0.00175524
O        3.02981889       1.75126878      12.23008024        3      -0.00021977       0.00056571       0.06221493
O        4.54627452       0.87933739       7.77783835        1       0.00020139      -0.00000475       0.00041855
C        1.51524440       2.62715488      10.00726633        2       0.00028286       0.00108378      -0.00137773
Ti       1.51530236       4.37643638       8.72000503        0      -0.00053464       0.00003520      -0.00164548
Ti       3.02991338       3.50139011      11.30257501        0       0.00076617      -0.00061578       0.00198423
O        1.51950552       4.37798229      12.23008024        3       0.00029407       0.00110749       0.05933060
O        3.02995399       3.50251170       7.77987157        1      -0.00007388       0.00061668      -0.00034857
C        0.00112037       5.25223731      10.00821078        2      -0.00027866      -0.00022735       0.00007438
Ti       0.00020219       7.00110212       8.71829577        0       0.00113204      -0.00049895      -0.00157149
Ti       1.51630528       6.12628884      11.30151327        0      -0.00082662       0.00094478       0.00079775
O        0.00313169       7.00373592      12.23008024        3      -0.00034639      -0.00083751       0.05697130
O        1.51494037       6.12533910       7.77963266        1      -0.00001603      -0.00040152       0.00054644
C       -1.51468612       7.87790208      10.00406261        2       0.00039123      -0.00066862      -0.00127076
Ti      -1.51486958       9.62479314       8.71474443        0      -0.00057444       0.00026259       0.00099186
Ti      -0.00014845       8.75034731      11.30016053        0       0.00055384      -0.00007318       0.00286881
O       -1.51509782       9.62464747      12.23008024        3      -0.00026742       0.00041396       0.03928917
O        0.00093848       8.74950732       7.77758644        1       0.00014398       0.00037177      -0.00049229
C        6.05939578       0.00256990      10.00365984        2       0.00154949       0.00075222      -0.00087328
Ti       6.06024241       1.75217517       8.71788208        0      -0.00073459       0.00087752      -0.00157859
Ti       7.57096315       0.87336156      11.29256414        0       0.00011353       0.00037679       0.00001919
O        6.05910655       1.75125769      12.23008024        3       0.00020317      -0.00057909       0.04094320
O        7.57730723       0.88019724       7.78011508        1       0.00054170       0.00019609      -0.00140080
C        4.54517213       2.62642478      10.00551497        2      -0.00029163       0.00086288      -0.00173659
Ti       4.54527839       4.37632092       8.71802845        0       0.00066350       0.00070101      -0.00072717
Ti       6.06128034       3.50108395      11.30491194        0       0.00219515       0.00059628       0.00156800
O        4.54408019       4.37734398      12.23008024        3       0.00026615       0.00094213       0.04640156
O        6.06247357       3.50194795       7.78090337        1       0.00068624       0.00146140      -0.00088626
C        3.03057871       5.25110182      10.00556316        2       0.00001844      -0.00009252      -0.00045845
Ti       3.03039914       7.00019557       8.71610955        0      -0.00012554       0.00088523       0.00074059
Ti       4.54490776       6.12591530      11.30237503        0       0.00187494       0.00024503       0.00127058
O        3.03097212       7.00120400      12.23008024        3       0.00043860      -0.00068840       0.04199206
O        4.54585280       6.12525195       7.77902767        1       0.00047494       0.00048900       0.00034665
C        1.51543864       7.87548859      10.00442121        2      -0.00014732      -0.00032966      -0.00099727
Ti       1.51554247       9.62477632       8.71552371        0       0.00154465      -0.00063571      -0.00092204
Ti       3.03116013       8.75031631      11.30244022        0       0.00042642       0.00072020       0.00164770
O        1.51612349       9.62334123      12.23008024        3       0.00042517       0.00053462       0.04175566
O        3.03036081       8.75019938       7.77779154        1       0.00089553       0.00055645       0.00053003
C        9.09072684       0.00210393      10.00424998        2      -0.00023146       0.00148297       0.00023947
Ti       9.09030382       1.75334134       8.72184484        0       0.00130067       0.00098151       0.00079887
Ti      10.61202719       0.87285655      11.28888857        0       0.00239214      -0.00100847       0.00184176
O        9.08712345       1.74044044      12.23008024        3       0.00132419       0.00264332       0.27900934
O       10.60456436       0.88047660       7.78015363        1       0.00007828       0.00020004      -0.00064358
C        7.57802444       2.62870139      10.01047606        2      -0.00046214      -0.00084275      -0.00080269
Ti       7.57543287       4.37659855       8.71770055        0       0.00040698       0.00085888       0.00222436
Ti       9.09074274       3.51237916      11.29930417        0      -0.00219087       0.00261738       0.00191641
O        7.57089458       4.37861167      12.23008024        3      -0.00007211       0.00015853       0.01752502
O        9.09164795       3.50191602       7.78131352        1       0.00006829       0.00047671       0.00178307
C        6.06071763       5.25141171      10.00654191        2       0.00036219      -0.00003839      -0.00171183
Ti       6.06082747       7.00059233       8.71768702        0       0.00009212       0.00026640      -0.00092500
Ti       7.57425321       6.12560089      11.30633111        0       0.00068818      -0.00157805       0.00210175
O        6.05980353       7.00235347      12.23008024        3      -0.00045441      -0.00085099       0.05717530
O        7.57681817       6.12462281       7.78084265        1      -0.00019188      -0.00067351      -0.00030241
C        4.54570975       7.87531437      10.00449152        2       0.00039554      -0.00018890      -0.00139123
Ti       4.54504189       9.62463304       8.71410336        0       0.00040840       0.00025756      -0.00196344
Ti       6.06031014       8.74982477      11.30234002        0       0.00073508       0.00021040       0.00354167
O        4.54611631       9.62164183      12.23008024        3      -0.00043490      -0.00043640       0.04356626
O        6.06009013       8.74981668       7.77794215        1      -0.00004138       0.00057421       0.00016066
C        0.05820357       0.06807224      16.37702354       10       0.00075947       0.00100532      -0.02508365
C        1.26704969       0.77052784      16.38541177       10      -0.00493227      -0.00242823       0.01455031
C       -1.13912603       2.15687906      16.35265287       10      -0.00238166       0.00018506       0.36862194
C        0.05413774       2.86853902      16.36029161       10      -0.00144440      -0.00015514       0.04050920
C       -2.37375171       4.29629356      16.35264732       10      -0.00365241       0.00385851       0.56863197
C       -1.16218984       4.97396661      16.36028905       10       0.00157392       0.00248218       0.01703597
C       -3.58442078       6.37761671      16.37702299       10      -0.00513676       0.00442322      -0.01605809
C       -2.37218147       7.07350032      16.38541157       10      -0.00032792      -0.00129187       0.01344703
C       -4.79538599       8.46963329      16.37513060       10       0.00313531       0.00230858      -0.01260624
C       -3.58358386       9.16938291      16.38642026       10      -0.00211414      -0.00136844      -0.02227989
C        2.47799824       0.07168666      16.38744528       10       0.00027306      -0.00271617      -0.02567713
C        3.68826779       0.77244697      16.38642017       10      -0.00068777      -0.00002060      -0.01566952
C        1.26947592       2.16890374      16.37702375       10      -0.00048127      -0.00086051      -0.01933377
C        2.47724311       2.87164325      16.36796362       10      -0.00186261       0.00022064      -0.01733740
C        0.05167079       4.27097147      16.33416373       10       0.00161624      -0.00056528       0.17434801
C        1.26242438       4.97003485      16.34583368       10      -0.00023547      -0.00057265      -0.07151826
C       -1.16020750       6.37668071      16.37702299       10       0.00188688       0.00328329      -0.01226561
C        0.05191735       7.07081240      16.36796372       10       0.00002964      -0.00170343      -0.02682127
C       -2.37170986       8.47122749      16.38744549       10       0.00135065      -0.00098920      -0.00448025
C       -1.16001220       9.16939056      16.38642026       10      -0.00145056       0.00009400      -0.02192824
C        4.89843501       0.07165261      16.38744528       10      -0.00002422      -0.00407113      -0.00387150
C        6.10921601       0.77085063      16.38541177       10       0.00081118      -0.00046098       0.01703082
C        3.68801094       2.17170558      16.37513047       10       0.00011095       0.00048081       0.00352950
C        4.89886227       2.87178262      16.36796362       10       0.00175807      -0.00086291      -0.01529319
C        2.47574426       4.27098026      16.35408012       10      -0.00042607      -0.00099220      -0.01623549
C        3.68757581       4.97073716      16.35129226       10      -0.00052160      -0.00021721       0.00500049
C        1.26283584       6.37015015      16.35408002       10      -0.00023550      -0.00063611      -0.01213114
C        2.47506031       7.06962223      16.35129215       10      -0.00014313      -0.00220557      -0.00149136
C        0.05143145       8.46915319      16.37513060       10      -0.00093993      -0.00114139       0.01451601
C        1.26284770       9.16799012      16.36796347       10      -0.00115351       0.00311038      -0.02254962
C        7.31831242       0.06878665      16.37702354       10       0.00025001      -0.00139857       0.01111481
C        8.53215699       0.77130226      16.36029142       10      -0.00015260       0.00171465       0.03665967
C        6.10666701       2.16927640      16.37702375       10       0.00282066      -0.00097006      -0.00820374
C        7.32293050       2.86880314      16.36029161       10       0.00116930      -0.00178314       0.02863880
C        4.89972215       4.27121897      16.35408012       10       0.00035303      -0.00200348      -0.02427493
C        6.11367641       4.97009232      16.34583368       10      -0.00315420      -0.00059614      -0.05119853
C        3.68745098       6.37018920      16.34821426       10       0.00042208      -0.00066221      -0.02459079
C        4.89994919       7.06989050      16.35129215       10      -0.00164991      -0.00202790       0.00380681
C        2.47506056       8.46912395      16.35407985       10      -0.00252827      -0.00095691      -0.01099379
C        3.68755258       9.17023308      16.34583327       10      -0.00121304       0.00059187      -0.05217296
C        9.74773441       0.07201879      16.33416368       10       0.00087965      -0.00053070       0.13600758
C       10.96407893       0.76992940      16.36029142       10      -0.00338952      -0.00275188       0.03661088
C        8.51498948       2.15852451      16.35265287       10       0.00043779       0.00091224       0.28900783
C        9.74597611       2.86768047      16.10829361       10       0.00206207      -0.00089067      -2.05820581
C        7.32463298       4.27127829      16.33416373       10      -0.00211658      -0.00132356       0.14314808
C        8.53743719       4.97493486      16.36028905       10       0.00000267       0.00067177       0.04834040
C        6.11221070       6.37071035      16.35408002       10       0.00040554      -0.00091209      -0.02434491
C        7.32348312       7.07163129      16.36796372       10       0.00023087      -0.00204026      -0.01407902
C        4.90006259       8.46924638      16.35407985       10       0.00464950       0.00078137      -0.02998532
C        6.11296017       9.16775981      16.36796347       10      -0.00162339      -0.00282700      -0.01187877
O        9.84274484       2.96026338      14.57575338       11      -0.00652617       0.00045548      -0.00741163
H        9.45282216       2.21352916      14.06621845       12       0.00469649      -0.00035606       0.00196357
