130
Lattice="12.12 0.0 0.0 -6.06 10.496227893867395 0.0 0.0 0.0 40.0" Properties=species:S:1:pos:R:3:tags:I:1:forces:R:3 energy=-1200.5611146656456 stress="0.0027811294476548037 2.0743488684731441e-07 4.595265612135746e-08 2.0743488684731441e-07 0.0027806971733026014 -2.5278423294443106e-07 4.595265612135746e-08 -2.5278423294443106e-07 0.0025389096354134907" pbc="T T F"
C       -0.00009447      -0.00012786       9.99804491        2       0.00025900       0.00023715      -0.00399044
Ti       0.00003528       1.74920987       8.69732841        0      -0.00004947      -0.00026220      -0.00168782
Ti       1.51467460       0.87461747      11.31358293        0       0.00023136       0.00034015      -0.00009238
O        0.00041770       1.74662092      12.23008024        3       0.00009812       0.00007945      -0.02136465
O        1.51535404       0.87484126       7.77236676        1       0.00060213       0.00018877       0.00410547
C       -1.51550026       2.62436745       9.99960225        2       0.00070754      -0.00039813      -0.00222381
Ti      -1.51503934       4.37320571       8.69780475        0      -0.00010789      -0.00000069       0.00048411
Ti      -0.00001991       3.49835943      11.31612766        0       0.00037729      -0.00058885       0.00343990
O       -1.51396207       4.37187366      12.23008024        3       0.00035707      -0.00017359      -0.01849600
O       -0.00002129       3.49918049       7.77282013        1      -0.00007109       0.00089820       0.00569174
C       -3.03045852       5.24785208      10.00102830        2       0.00053025       0.00013131      -0.00110989
Ti      -3.03020219       6.99750826       8.69786634        0       0.00001546      -0.00009425       0.00090381
Ti      -1.51487654       6.12282625      11.31412765        0       0.00003530      -0.00011321       0.00315662
O       -3.03036702       6.99874788      12.23008024        3      -0.00011905       0.00043557      -0.01924004
O       -1.51495443       6.12287798       7.77319911        1      -0.00004257       0.00013229       0.00683987
C       -4.54502228       7.87162496       9.99995885        2      -0.00010770       0.00071695      -0.00197907
Ti      -4.54515705       9.62168307       8.69735157        0      -0.00021193       0.00014487      -0.00130125
Ti      -3.03033079       8.74703816      11.31629975        0      -0.00078392       0.00045826       0.00346885
O       -4.54754451       9.62394509      12.23008024        3      -0.00009258       0.00004607      -0.01890726
O       -3.02965736       8.74658850       7.77291584        1       0.00072483      -0.00057427       0.00613508
C        3.03044670       0.00009074       9.99949986        2      -0.00062425       0.00002754      -0.00223911
Ti       3.02974979       1.74924521       8.69787531        0      -0.00013994      -0.00013138       0.00021642
Ti       4.54487301       0.87482642      11.31608969        0      -0.00007460      -0.00023345       0.00383280
O        3.02704504       1.74778471      12.23008024        3      -0.00004265      -0.00007159      -0.02134322
O        4.54540222       0.87495617       7.77330449        1       0.00063328       0.00024063       0.00709903
C        1.51537973       2.62441338       9.99935640        2      -0.00029289      -0.00036603      -0.00228848
Ti       1.51505165       4.37316846       8.69778125        0       0.00005967      -0.00001138       0.00018925
Ti       3.03003121       3.49848356      11.31619586        0      -0.00003508      -0.00003964       0.00384402
O        1.51400938       4.37167652      12.23008024        3      -0.00008290      -0.00021942      -0.02068589
O        3.03048886       3.49895148       7.77333127        1       0.00065592       0.00027229       0.00681589
C       -0.00008990       5.24767177      10.00035878        2       0.00017303      -0.00052142      -0.00152921
Ti      -0.00002423       6.99742695       8.69787212        0       0.00004574       0.00001184       0.00119426
Ti       1.51481123       6.12290073      11.31388651        0      -0.00041975      -0.00029347       0.00321147
O       -0.00025621       6.99699364      12.23008024        3       0.00007114      -0.00028374      -0.02601233
O        1.51499989       6.12293018       7.77323377        1      -0.00000176       0.00020805       0.00679170
C       -1.51551234       7.87227022      10.00053406        2       0.00005024      -0.00000046      -0.00148951
Ti      -1.51519526       9.62170928       8.69779002        0       0.00009482       0.00005015       0.00074143
Ti      -0.00000371       8.74648715      11.31365054        0      -0.00013750      -0.00073585       0.00311778
O       -1.51654947       9.62135848      12.23008024        3      -0.00040620      -0.00013720      -0.02165267
O        0.00006345       8.74677640       7.77322761        1       0.00003989      -0.00010030       0.00695663
C        6.05999878       0.00057426      10.00100714        2      -0.00004118      -0.00050798      -0.00088321
Ti       6.05998203       1.74943655       8.69831204        0       0.00011198       0.00007966       0.00196761
Ti       7.57515550       0.87476081      11.31611332        0      -0.00000238      -0.00041208       0.00399031
O        6.06001788       1.74932346      12.23008024        3      -0.00028598      -0.00037186      -0.02111138
O        7.57466346       0.87491070       7.77337502        1      -0.00045318       0.00020880       0.00744424
C        4.54524367       2.62418232      10.00173481        2      -0.00052841      -0.00009711      -0.00056540
Ti       4.54500922       4.37340490       8.69839170        0       0.00017015      -0.00006984       0.00164739
Ti       6.06020736       3.49892583      11.31495291        0      -0.00007727       0.00017896       0.00394710
O        4.54479893       4.37339809      12.23008024        3      -0.00055594       0.00017608      -0.01939684
O        6.06000360       3.49877475       7.77384976        1       0.00010712      -0.00000445       0.00804622
C        3.03051706       5.24783363      10.00100653        2      -0.00046805       0.00000351      -0.00069979
Ti       3.03021721       6.99749211       8.69793276        0      -0.00009977      -0.00002923       0.00096839
Ti       4.54522734       6.12286402      11.31619164        0      -0.00033346       0.00001088       0.00434640
O        3.03006612       6.99856921      12.23008024        3      -0.00033069       0.00007420      -0.02243418
O        4.54508310       6.12242286       7.77347500        1       0.00014737      -0.00041091       0.00750102
C        1.51543993       7.87234557      10.00066423        2       0.00008434      -0.00021891      -0.00132912
Ti       1.51514449       9.62169063       8.69785542        0      -0.00006655      -0.00000311       0.00116000
Ti       3.03041146       8.74710150      11.31621619        0       0.00084831       0.00013475       0.00374835
O        1.51606990       9.62103084      12.23008024        3       0.00011164      -0.00036076      -0.02288790
O        3.02963930       8.74660750       7.77301537        1      -0.00071178      -0.00046736       0.00645694
C        9.08969620       0.00021670       9.99984049        2       0.00049724      -0.00030514      -0.00197630
Ti       9.09024311       1.74928481       8.69783765        0       0.00018109      -0.00013947       0.00095651
Ti      10.60537009       0.87470544      11.31396357        0      -0.00000008       0.00022807      -0.00016794
O        9.09242211       1.74823064      12.23008024        3       0.00059043      -0.00030202      -0.02253115
O       10.60461218       0.87483648       7.77241622        1      -0.00071271       0.00018646       0.00428174
C        7.57496539       2.62416244      10.00173518        2       0.00014925      -0.00021858      -0.00052036
Ti       7.57501171       4.37342785       8.69832539        0      -0.00002762      -0.00006872       0.00201508
Ti       9.09001231       3.49851271      11.31625139        0       0.00014659      -0.00019266       0.00360254
O        7.57560836       4.37360089      12.23008024        3       0.00036121       0.00035114      -0.01605839
O        9.08956322       3.49890695       7.77333937        1      -0.00062654       0.00019411       0.00706107
C        6.06008790       5.24807821      10.00183771        2      -0.00028383       0.00028222      -0.00044936
Ti       6.06002984       6.99773635       8.69798130        0       0.00002133       0.00017480       0.00093501
Ti       7.57479506       6.12284024      11.31622199        0       0.00018261       0.00002892       0.00373675
O        6.06014822       6.99970136      12.23008024        3       0.00008310       0.00053164      -0.02251665
O        7.57490358       6.12240430       7.77342530        1      -0.00011487      -0.00050475       0.00735638
C        4.54511894       7.87175596      10.00002975        2      -0.00001726       0.00043664      -0.00179101
Ti       4.54523435       9.62167952       8.69733788        0       0.00019361       0.00018977      -0.00111217
Ti       6.06014267       8.74724084      11.31420508        0       0.00001004      -0.00034485       0.00032118
O        4.54832246       9.62381077      12.23008024        3       0.00021998       0.00023934      -0.01767481
O        6.05997816       8.74638992       7.77248662        1      -0.00001111      -0.00078821       0.00459702
C        0.04494922       0.06772633      16.26084947       10       0.00550874       0.00120948      -0.03475692
C        1.25644620       0.76698893      16.26084947       10       0.00200963       0.00226578       0.02277607
C       -1.16592384       2.16596217      16.26084947       10       0.00365802      -0.00141812      -0.02283836
C        0.04509068       2.86572396      16.26084947       10      -0.00194605       0.00116793       0.01084746
C       -2.37791664       4.26605358      16.26084947       10       0.00333293      -0.00319986       0.00930069
C       -1.16675221       4.96533377      16.26084947       10       0.00034011       0.00138000      -0.00429966
C       -3.59043630       6.36619261      16.26084947       10       0.00501707      -0.00191790       0.01225097
C       -2.37912753       7.06537818      16.26084947       10       0.00054783      -0.00125934      -0.00707851
C       -4.80305152       8.46598554      16.26084947       10       0.00236540      -0.00258809      -0.01899957
C       -3.59153678       9.16474006      16.26084947       10      -0.00011837      -0.00315415       0.01146582
C        2.46775264       0.06715873      16.26084947       10       0.00277317       0.00406160      -0.01834049
C        3.68004899       0.76708543      16.26084947       10       0.00234856       0.00066271       0.01119620
C        1.25608483       2.16585630      16.26084947       10      -0.00083147       0.00187776      -0.02236178
C        2.46827499       2.86602368      16.26084947       10      -0.00030367      -0.00066322       0.01244711
C        0.04501087       4.26539304      16.26084947       10      -0.00026669       0.00135842       0.01379791
C        1.25665395       4.96529247      16.26084947       10       0.00015949       0.00007179      -0.00446768
C       -1.16653965       6.36542231      16.26084947       10       0.00019553       0.00323274       0.03964239
C        0.04502701       7.06509762      16.26084947       10      -0.00041552      -0.00059670      -0.03397643
C       -2.37931843       8.46480603      16.26084947       10       0.00038174      -0.00018720       0.01865333
C       -1.16751137       9.16436413      16.26084947       10       0.00021129      -0.00367648      -0.00809414
C        4.89227881       0.06662869      16.26084947       10       0.00080907       0.00339924       0.01504894
C        6.10481525       0.76723489      16.26084947       10       0.00100047       0.00096815      -0.00158735
C        3.67963622       2.16605442      16.26084947       10      -0.00134661      -0.00100414      -0.00685347
C        4.89255733       2.86647096      16.26084947       10       0.00035231      -0.00244623       0.01103397
C        2.46778311       4.26594400      16.26084947       10       0.00034159      -0.00040527       0.01077913
C        3.68081122       4.96575776      16.26084947       10       0.00081893      -0.00001480      -0.00190728
C        1.25662944       6.36535582      16.26084947       10      -0.00015515       0.00220686       0.04444839
C        2.46902148       7.06538355      16.26084947       10       0.00127527       0.00052608      -0.01114786
C        0.04501050       8.46436001      16.26084947       10      -0.00098450      -0.00064964       0.04758426
C        1.25745405       9.16429176      16.26084947       10      -0.00099030      -0.00302381      -0.01192720
C        7.31736040       0.06655900      16.26084947       10      -0.00008732       0.00413131       0.01882745
C        8.52964916       0.76714441      16.26084947       10       0.00005170       0.00014263       0.00750178
C        6.10486545       2.16592424      16.26084947       10       0.00068972       0.00084150      -0.00200570
C        7.31731748       2.86651515      16.26084947       10       0.00011753      -0.00302830       0.01143696
C        4.89217127       4.26641567      16.26084947       10       0.00079568      -0.00023723      -0.00505984
C        6.10496251       4.96624466      16.26084947       10       0.00048268      -0.00065606       0.01238212
C        3.68026770       6.36615969      16.26084947       10       0.00040860       0.00010992       0.01771801
C        4.89310769       7.06588642      16.26084947       10       0.00029373      -0.00182819       0.00599845
C        2.46941563       8.46479985      16.26084947       10      -0.00301388      -0.00099396       0.02453148
C        3.68174758       9.16479838      16.26084947       10      -0.00334478      -0.00425598       0.01200098
C        9.74203154       0.06718321      16.26084947       10       0.00015734       0.00303787      -0.01348214
C       10.95350956       0.76701427      16.26084947       10      -0.00248517       0.00290646       0.02236059
C        8.53022699       2.16601717      16.26084947       10      -0.00028372       0.00129216      -0.00626861
C        9.74185022       2.86604234      16.26084947       10      -0.00526891       0.00240047       0.01057787
C        7.31753999       4.26638377      16.26084947       10      -0.00047949      -0.00094550      -0.00889839
C        8.52908833       4.96566601      16.26084947       10      -0.00384310       0.00373351      -0.00195020
C        6.10489346       6.36677306      16.26084947       10       0.00166396      -0.00051381      -0.00661487
C        7.31705294       7.06580599      16.26084947       10      -0.00382365       0.00184339       0.00793182
C        4.89329945       8.46590936      16.26084947       10      -0.00255871      -0.00222079      -0.01381029
C        6.10526328       9.16498669      16.26084947       10      -0.00594809      -0.00110397       0.02160214
