131
Lattice="12.12 0.0 0.0 -6.06 10.496227893867395 0.0 0.0 0.0 40.0" Properties=species:S:1:pos:R:3:tags:I:1:forces:R:3 stress="0.00284056082458735 -2.561492326306802e-06 2.2873715723858948e-06 -2.561492326306802e-06 0.002838303118780322 6.494943931832563e-07 2.2873715723858948e-06 6.494943931832563e-07 0.0023486714101887667" energy=-1205.3020575722128 pbc="T T F"
C       -0.00147452       0.00098954       9.99978535        2       0.00052704       0.00000244       0.00339505
Ti       0.00103088       1.74905275       8.69096995        0      -0.00006827       0.00010779      -0.00623540
Ti       1.51664845       0.87699789      11.30999636        0      -0.00038440       0.00044048       0.00460115
O       -0.00039270       1.74793822      12.23008024        3       0.00017388       0.00000739       0.01163727
O        1.51766225       0.87163603       7.77432154        1       0.00032815      -0.00055862       0.00187170
C       -1.51427916       2.62267731       9.99989349        2       0.00048543      -0.00047067       0.00235934
Ti      -1.51483260       4.37593696       8.69553567        0       0.00023283      -0.00067128      -0.00648035
Ti      -0.00115747       3.49708954      11.30912447        0       0.00240914       0.00065570       0.00061187
O       -1.51404801       4.37235936      12.23008024        3       0.00030862      -0.00050818      -0.01932976
O       -0.00090704       3.49929623       7.76887759        1       0.00001252       0.00017129       0.00055685
C       -3.02973293       5.24600014      10.00318841        2       0.00029240       0.00027711       0.00516995
Ti      -3.03162204       6.99529107       8.70819659        0       0.00079724      -0.00006767      -0.00547941
Ti      -1.51075636       6.12612382      11.31820692        0       0.00016011      -0.00139679       0.00456410
O       -3.03516550       6.98257075      12.23008024        3       0.00061101      -0.00078350      -0.13520815
O       -1.51663534       6.12753115       7.77740523        1      -0.00032271      -0.00022651       0.00288184
C       -4.54586587       7.87184312      10.01322924        2       0.00111002       0.00062514       0.00744603
Ti      -4.54570102       9.62162943       8.70367730        0      -0.00019859       0.00074230      -0.00578898
Ti      -3.01881046       8.74342124      11.37902429        0       0.00081194      -0.00007211       0.00162930
O       -4.55442749       9.62738271      12.23008024        3      -0.00167720       0.00106860      -0.02156586
O       -3.02838582       8.74586936       7.78917909        1      -0.00021457       0.00021348       0.00442267
C        3.02994338       0.00138043      10.01332753        2       0.00022031      -0.00081732       0.00687285
Ti       3.02990674       1.74877596       8.70060003        0       0.00049257       0.00033032      -0.00521880
Ti       4.54369136       0.88141014      11.30978643        0       0.00160507      -0.00035720       0.00664182
O        3.02835409       1.75394557      12.23008024        3       0.00098948      -0.00110623       0.00542626
O        4.54370496       0.87175861       7.77599359        1       0.00064341      -0.00122180       0.00259609
C        1.51297202       2.62583968      10.00028266        2       0.00057898       0.00006612       0.00413984
Ti       1.51400741       4.37329207       8.69329719        0       0.00073707       0.00042938      -0.00545941
Ti       3.02828043       3.49897754      11.31179463        0       0.00035371       0.00016427      -0.00027266
O        1.51403485       4.37089767      12.23008024        3       0.00162740      -0.00000920      -0.02670553
O        3.03012293       3.49639927       7.77065232        1      -0.00003722      -0.00043621       0.00051839
C        0.00211901       5.24567655       9.99991180        2       0.00028367      -0.00039907       0.00434140
Ti       0.00117579       6.99693399       8.69975614        0      -0.00025263       0.00059983      -0.00473538
Ti       1.51863155       6.12069053      11.30807936        0      -0.00018191       0.00032162       0.00181523
O        0.01146429       6.99150360      12.23008024        3      -0.00024784       0.00065240      -0.02379641
O        1.51218876       6.12459949       7.77057231        1      -0.00073537       0.00071011       0.00152055
C       -1.51411134       7.87232523      10.02403792        2      -0.00030274       0.00038555       0.00710534
Ti      -1.51361592       9.62414469       8.70766359        0       0.00051347       0.00002155      -0.00578132
Ti      -0.00131944       8.74313142      11.31908368        0       0.00141075       0.00129144       0.00438709
O       -1.50250602       9.63646471      12.23008024        3       0.00127377       0.00016345      -0.17281843
O       -0.00467240       8.74590688       7.77707313        1       0.00028680       0.00091501       0.00270157
C        6.06249001       0.00136310      10.00177203        2       0.00019113      -0.00019184       0.00515345
Ti       6.05967963       1.74870969       8.69590370        0       0.00045659       0.00045032      -0.00621319
Ti       7.57634289       0.87395614      11.30740654        0       0.00067648       0.00037404       0.00085001
O        6.06134907       1.74882287      12.23008024        3      -0.00003813       0.00031560      -0.01133359
O        7.57405028       0.87419235       7.76997540        1      -0.00010981       0.00012828       0.00048033
C        4.54569379       2.62804252      10.00131252        2       0.00040091       0.00017917       0.00292503
Ti       4.54511701       4.37358693       8.69228933        0      -0.00034636       0.00007644      -0.00414013
Ti       6.06066122       3.49780953      11.31611496        0      -0.00140331       0.00118928      -0.00044333
O        4.54352217       4.37370495      12.23008024        3      -0.00044547       0.00039433      -0.01360785
O        6.06087982       3.49868571       7.77089616        1       0.00073122      -0.00012726       0.00046039
C        3.02981593       5.24829201      10.00187892        2      -0.00022364       0.00034576       0.00293706
Ti       3.02977313       6.99854502       8.69358203        0       0.00005917      -0.00062590      -0.00527514
Ti       4.54381734       6.12390355      11.31293556        0       0.00016134       0.00012997      -0.00008628
O        3.03181125       6.99962198      12.23008024        3       0.00077069      -0.00089853      -0.02079590
O        4.54745054       6.12429869       7.77121506        1       0.00056888       0.00039273       0.00068096
C        1.51817699       7.87199121       9.99976861        2       0.00072891       0.00052003       0.00406281
Ti       1.51325602       9.62035462       8.69484529        0       0.00078656       0.00058498      -0.00666031
Ti       3.03022412       8.74901088      11.30908908        0       0.00095485      -0.00174854       0.00064592
O        1.51632016       9.62226094      12.23008024        3       0.00089018       0.00049932      -0.01233567
O        3.02946633       8.74728230       7.76877456        1       0.00008357       0.00023620       0.00056735
C        9.09152741       0.00038891       9.99964734        2       0.00092860       0.00011011       0.00248763
Ti       9.08993068       1.74957270       8.69131448        0       0.00069160      -0.00018452      -0.00597196
Ti      10.60611483       0.87421374      11.30580290        0       0.00061675      -0.00006764      -0.00085500
O        9.09186091       1.74834551      12.23008024        3       0.00077460      -0.00035320      -0.02660209
O       10.60529357       0.87456063       7.76776172        1       0.00068872      -0.00027086      -0.00005442
C        7.57651399       2.62345512      10.00129494        2       0.00024290       0.00012890       0.00352090
Ti       7.57545169       4.37410025       8.69679315        0       0.00015675      -0.00032185      -0.00607085
Ti       9.09202214       3.49824251      11.30877788        0       0.00012149      -0.00042071       0.00085842
O        7.57591799       4.37145156      12.23008024        3      -0.00019227      -0.00027687      -0.00529877
O        9.09001975       3.50032426       7.77057601        1       0.00009938       0.00039675       0.00059803
C        6.05726355       5.24559672      10.00260160        2       0.00023165       0.00005315       0.00340579
Ti       6.06078745       6.99811430       8.70221974        0      -0.00014283      -0.00038203      -0.00556799
Ti       7.56908085       6.12124084      11.31281444        0       0.00114941      -0.00089763       0.00633459
O        6.05559119       6.99786476      12.23008024        3       0.00129230       0.00017524       0.00754951
O        7.57703663       6.12546408       7.77708044        1       0.00146265       0.00061449       0.00285493
C        4.54251200       7.87307104      10.00095811        2       0.00045444      -0.00018540       0.00430319
Ti       4.54588802       9.62089729       8.69125110        0       0.00015572       0.00041960      -0.00626340
Ti       6.05858477       8.74539725      11.30978168        0      -0.00015507       0.00056181       0.00536603
O        4.54547279       9.62277058      12.23008024        3       0.00019045       0.00014427      -0.00601637
O        6.06383890       8.74585789       7.77441848        1       0.00104950       0.00027887       0.00211090
C        0.04064381       0.07006636      16.59252311       10      -0.00545102      -0.00221794       0.02928263
C        1.24852922       0.77041733      16.57723106       10       0.00169988       0.00047909       0.01900531
C       -1.16949376       2.16731198      16.59784381       10       0.00028272      -0.00108353       0.02190464
C        0.04212766       2.86705783      16.58013338       10       0.00017722      -0.00263559       0.01417575
C       -2.37986571       4.26473863      16.59252311       10      -0.00168246      -0.00237946       0.02133375
C       -1.17040856       4.96034508      16.57723106       10      -0.00013559      -0.00118075       0.01949051
C       -3.58694293       6.36828459      16.52941236       10      -0.00225431      -0.00128857       0.07473904
C       -2.38175721       7.04887536      16.48759014       10      -0.00189304       0.00025809      -0.20874406
C       -4.80193403       8.47068103      16.52941236       10      -0.00392699       0.00002745       0.05347957
C       -3.60950948       9.17471844      16.48759014       10       0.00487658       0.00328677      -0.17830273
C        2.46425486       0.06342202      16.52941236       10      -0.00178269      -0.00127342       0.05552874
C        3.67847007       0.76859674      16.49733368       10      -0.00315217      -0.00041192      -0.02140670
C        1.25406928       2.16810194      16.56618809       10      -0.00026782      -0.00257464       0.01567284
C        2.46557366       2.86605901      16.54427368       10      -0.00047817      -0.00076453       0.00612239
C        0.04318786       4.26597328      16.56618809       10      -0.00086730      -0.00237672       0.01855593
C        1.25377659       4.96599888      16.54427368       10      -0.00155596      -0.00063376       0.00065222
C       -1.17470534       6.36769702      16.52941236       10      -0.00341793      -0.00024065       0.06732305
C        0.04299380       7.06602655      16.49733368       10      -0.00328708       0.00061182      -0.03935460
C       -2.38321313       8.46631540      16.03478448       10      -0.00141957       0.00063701       0.17432829
C       -1.15483936       9.17452299      16.48759014       10      -0.00188554      -0.00002545      -0.21437382
C        4.89218883       0.06252643      16.52941236       10      -0.00217723       0.00015531       0.07409578
C        6.10914097       0.77051671      16.57723106       10      -0.00056037      -0.00021408       0.02733498
C        3.67825419       2.16399422      16.52966739       10      -0.00057183      -0.00078877      -0.01106060
C        4.89205330       2.86595475      16.54427368       10       0.00033107       0.00001945       0.01780211
C        2.46652075       4.26703716      16.54159207       10      -0.00163522      -0.00045351       0.00262361
C        3.67976440       4.96646148      16.53659130       10      -0.00233597       0.00013962      -0.00237593
C        1.25186891       6.36814441      16.52966739       10      -0.00279433       0.00123406       0.00868532
C        2.46720477       7.06764742      16.54427368       10      -0.00132728       0.00143569       0.00276176
C        0.03851716       8.47010069      16.52941236       10      -0.00055246       0.00111628       0.06921292
C        1.25957343       9.16982640      16.57723106       10       0.00199247       0.00102607       0.02308340
C        7.31727845       0.06888020      16.59252311       10       0.00271285       0.00204229       0.02169909
C        8.52982193       0.76979926      16.59946163       10       0.00235569       0.00240406       0.01928459
C        6.10363144       2.16723938      16.56618809       10       0.00136902      -0.00002579       0.02277237
C        7.31636026       2.86676678      16.58013338       10       0.00123635       0.00031506       0.02613816
C        4.89074878       4.26706887      16.54159207       10      -0.00247271       0.00131475       0.00545070
C        6.10523136       4.96632576      16.54427368       10      -0.00296312       0.00174332       0.02033888
C        3.67869137       6.36693944      16.54159207       10      -0.00253578      -0.00000343       0.00387181
C        4.89192004       7.06809678      16.54427368       10      -0.00176882       0.00072846       0.00764238
C        2.46774161       8.46630085      16.56618809       10       0.00327903       0.00158607       0.01826400
C        3.67900569       9.16646738      16.58013338       10       0.00331019       0.00159680       0.00626688
C        9.73929163       0.06928433      16.59784381       10      -0.00234423      -0.00189829       0.01953214
C       10.94822700       0.76988005      16.59946163       10       0.00560095      -0.00025898       0.02144041
C        8.52840830       2.16681137      16.59784381       10       0.00110692       0.00015760       0.00776030
C        9.73919375       2.86432425      16.59946163       10       0.00131233      -0.00228981       0.02324975
C        7.31606989       4.26640932      16.56618809       10      -0.00401742       0.00006408       0.02345092
C        8.52860851       4.96041008      16.57723106       10      -0.00103463      -0.00244948       0.03595090
C        6.10599125       6.36867522      16.52966739       10      -0.00237037       0.00153716      -0.00581996
C        7.31450030       7.06644192      16.49733368       10      -0.00106273      -0.00027794      -0.02155310
C        4.89024002       8.46651882      16.56618809       10       0.00013311      -0.00116659       0.01408322
C        6.09771913       9.16994557      16.57723106       10       0.00679654       0.00186875       0.01666367
O       -2.38085128       8.46305872      14.71233360       11      -0.00195461       0.00012120       0.00303808
