131
Lattice="12.12 0.0 0.0 -6.06 10.496227893867395 0.0 0.0 0.0 40.0" Properties=species:S:1:pos:R:3:tags:I:1:forces:R:3 stress="0.0028635312588290076 -9.651575023695256e-07 3.3070407193853245e-06 -9.651575023695256e-07 0.002861984556467513 -2.9192779929875717e-06 3.3070407193853245e-06 -2.9192779929875717e-06 0.002213852490338091" energy=-1205.4029737557532 pbc="T T F"
C       -0.00152005       0.00086769      10.00216602        2       0.00083191      -0.00052602       0.00224611
Ti       0.00086192       1.74868997       8.69000619        0       0.00000346      -0.00011475      -0.00535216
Ti       1.51740951       0.87574064      11.30842268        0       0.00030493       0.00006031       0.00425467
O        0.00038219       1.75159511      12.23008024        3       0.00041113       0.00009540       0.03667192
O        1.51704646       0.87110500       7.77339273        1       0.00033657      -0.00078565       0.00154872
C       -1.51449585       2.62302670       9.99942940        2       0.00060064      -0.00069529       0.00102685
Ti      -1.51471342       4.37469757       8.69184892        0       0.00029391      -0.00108811      -0.00516617
Ti       0.00003776       3.49948818      11.30422326        0       0.00222548      -0.00002869       0.00113661
O       -1.51485389       4.37371304      12.23008024        3       0.00046549      -0.00041180       0.01123381
O       -0.00092691       3.49829698       7.76714283        1       0.00014803      -0.00035794       0.00041093
C       -3.03008451       5.24547969      10.00137797        2       0.00054183       0.00015407       0.00300066
Ti      -3.03159887       6.99603644       8.70198589        0       0.00054423      -0.00077101      -0.00457412
Ti      -1.51267408       6.12592122      11.31553031        0       0.00081383      -0.00159611       0.00481455
O       -3.03496456       6.98484802      12.23008024        3       0.00096745      -0.00124936      -0.09026180
O       -1.51617375       6.12725488       7.77588129        1      -0.00007132      -0.00054638       0.00205357
C       -4.54572884       7.87137170      10.01140887        2       0.00130282      -0.00000261       0.00476607
Ti      -4.54523938       9.62142337       8.70139856        0      -0.00023816       0.00009256      -0.00503599
Ti      -3.02232432       8.74322271      11.35637895        0       0.00092110      -0.00060907       0.00475242
O       -4.55143410       9.62405423      12.23008024        3      -0.00061113       0.00029317      -0.00269402
O       -3.02865687       8.74628296       7.78406160        1       0.00009167      -0.00024857       0.00385961
C        3.03025764       0.00071443      10.01286685        2       0.00051083      -0.00131109       0.00490074
Ti       3.02942633       1.74914084       8.69612180        0       0.00095268       0.00026240      -0.00493501
Ti       4.54514770       0.87876366      11.30787260        0       0.00127311      -0.00060165       0.00542367
O        3.03042674       1.75328093      12.23008024        3       0.00108054      -0.00155922       0.03584137
O        4.54327946       0.87103648       7.77405101        1       0.00066582      -0.00160485       0.00171691
C        1.51420898       2.62494662       9.99990755        2       0.00085289      -0.00047144       0.00258657
Ti       1.51399787       4.37272999       8.68936188        0       0.00089580      -0.00006178      -0.00460530
Ti       3.03080362       3.49946388      11.30253498        0       0.00056173      -0.00010990       0.00005686
O        1.51658443       4.37178605      12.23008024        3       0.00113373      -0.00047469       0.00044636
O        3.02966522       3.49591035       7.76729534        1       0.00017654      -0.00084859      -0.00021099
C        0.00238227       5.24579157       9.99949863        2       0.00053028      -0.00042013       0.00228128
Ti       0.00215939       6.99617642       8.69709885        0       0.00012547      -0.00016345      -0.00436256
Ti       1.51898973       6.12021964      11.30243227        0       0.00049242      -0.00043602       0.00148198
O        0.00863593       6.99166959      12.23008024        3       0.00021421      -0.00026660      -0.04691934
O        1.51227599       6.12439704       7.76794367        1      -0.00062508       0.00021647       0.00086047
C       -1.51494463       7.87197992      10.02238925        2      -0.00012190      -0.00005977       0.00544205
Ti      -1.51436238       9.62346453       8.70268246        0       0.00061295      -0.00031347      -0.00468033
Ti      -0.00135016       8.74311487      11.31621904        0       0.00149468       0.00015809       0.00486711
O       -1.50615973       9.63150533      12.23008024        3       0.00136735      -0.00047983      -0.10976476
O       -0.00443270       8.74576465       7.77610832        1       0.00023303       0.00023879       0.00208589
C        6.06192981       0.00107464      10.00227593        2       0.00007508      -0.00076312       0.00322177
Ti       6.06012664       1.74866034       8.69098018        0       0.00046506       0.00023981      -0.00500062
Ti       7.57542049       0.87439894      11.30145897        0       0.00047153      -0.00006798       0.00117388
O        6.06208286       1.75076967      12.23008024        3       0.00026126      -0.00015515      -0.02261666
O        7.57438499       0.87332747       7.76761531        1       0.00009257      -0.00037253       0.00042692
C        4.54540406       2.62613372       9.99955617        2       0.00020850      -0.00029362       0.00093711
Ti       4.54503017       4.37340086       8.68680327        0       0.00040186      -0.00037761      -0.00390519
Ti       6.06014140       3.49844160      11.30264665        0      -0.00088557       0.00051408      -0.00096519
O        4.54480267       4.37344302      12.23008024        3       0.00013633      -0.00033511      -0.02914208
O        6.06082757       3.49801371       7.76663378        1       0.00089355      -0.00066669      -0.00072998
C        3.03028829       5.24780777       9.99865319        2       0.00000900      -0.00014604       0.00116754
Ti       3.03011562       6.99870072       8.68938008        0       0.00031895      -0.00088808      -0.00449845
Ti       4.54425485       6.12153473      11.30221367        0       0.00021043      -0.00064127      -0.00000756
O        3.03203097       6.99670770      12.23008024        3       0.00078901      -0.00108488      -0.01767970
O        4.54712244       6.12443444       7.76732520        1       0.00063397       0.00010452      -0.00030894
C        1.51809237       7.87116170       9.99988374        2       0.00059918      -0.00032397       0.00222853
Ti       1.51395825       9.62066084       8.69240165        0       0.00086239       0.00014733      -0.00513976
Ti       3.02928645       8.74643394      11.30423100        0       0.00107363      -0.00202000       0.00116332
O        1.51458075       9.62139149      12.23008024        3       0.00039104      -0.00055373      -0.00231771
O        3.02967685       8.74791310       7.76731014        1       0.00024653       0.00007468       0.00049451
C        9.09111796       0.00021883       9.99943891        2       0.00078457      -0.00042689       0.00129279
Ti       9.09038005       1.74904790       8.68737910        0       0.00024381      -0.00018386      -0.00546427
Ti      10.60576666       0.87444659      11.30318626        0       0.00047056      -0.00037445       0.00046818
O        9.09035467       1.74920226      12.23008024        3       0.00077140      -0.00046687       0.00285798
O       10.60606000       0.87410831       7.76668869        1       0.00048978      -0.00038024       0.00025822
C        7.57631610       2.62319296       9.99838283        2       0.00024551      -0.00024487       0.00151132
Ti       7.57575537       4.37345202       8.69040431        0      -0.00005588      -0.00074935      -0.00504674
Ti       9.09063174       3.49871117      11.30117903        0       0.00000430      -0.00032647       0.00100071
O        7.57493563       4.37040067      12.23008024        3       0.00009378      -0.00032293      -0.03917358
O        9.09087613       3.49963589       7.76720848        1       0.00023596      -0.00003585       0.00031727
C        6.05849292       5.24654736       9.99961414        2       0.00030490      -0.00009119       0.00111057
Ti       6.06027728       6.99827301       8.69599310        0       0.00001941      -0.00113324      -0.00508051
Ti       7.57052782       6.11980863      11.30611934        0       0.00093240      -0.00092086       0.00509860
O        6.05630923       6.99491675      12.23008024        3       0.00160869      -0.00039451       0.02367127
O        7.57723259       6.12588966       7.77329857        1       0.00151411       0.00007833       0.00165556
C        4.54359351       7.87245455       9.99995850        2       0.00065674      -0.00061793       0.00250907
Ti       4.54585145       9.62127359       8.68998376        0       0.00008063      -0.00001670      -0.00535746
Ti       6.05941386       8.74383577      11.30815558        0       0.00009853      -0.00037261       0.00429438
O        4.54371443       9.62033483      12.23008024        3       0.00014461      -0.00092158       0.03031834
O        6.06390714       8.74706930       7.77310819        1       0.00080564      -0.00006544       0.00151401
C        0.04048626       0.07054062      16.83867695       10      -0.00361510      -0.00076716       0.01629936
C        1.24882220       0.77094488      16.82338490       10      -0.00022947       0.00049478       0.00340245
C       -1.16949657       2.16812182      16.84399765       10       0.00083597      -0.00125851       0.01921280
C        0.04197603       2.86770584      16.82628722       10       0.00040112      -0.00213125       0.01108088
C       -2.38060046       4.26517157      16.83867695       10      -0.00109813      -0.00211113       0.01706535
C       -1.17040079       4.96132368      16.82338490       10      -0.00051987      -0.00104204       0.00830541
C       -3.58673822       6.36865593      16.77556620       10      -0.00251271      -0.00069508       0.05315596
C       -2.38131149       7.05022735      16.73374398       10      -0.00254797       0.00081366      -0.16139796
C       -4.80170164       8.47106141      16.77556620       10      -0.00115991       0.00070878       0.06549043
C       -3.60887180       9.17472690      16.73374398       10       0.00308379       0.00256728      -0.17170100
C        2.46433724       0.06358361      16.77556620       10      -0.00229314       0.00051714       0.06595855
C        3.67863539       0.76858485      16.74348752       10      -0.00344927       0.00056454      -0.02040157
C        1.25394282       2.16881348      16.81234193       10      -0.00010992      -0.00155579       0.01928402
C        2.46580474       2.86650157      16.79042752       10      -0.00039875      -0.00053035       0.01567501
C        0.04287744       4.26709623      16.81234193       10      -0.00072296      -0.00200654       0.02040864
C        1.25349951       4.96646061      16.79042752       10      -0.00166868      -0.00003401       0.00032708
C       -1.17518031       6.36823776      16.77556620       10      -0.00349815       0.00028410       0.03786601
C        0.04265879       7.06655963      16.74348752       10      -0.00330446       0.00150869      -0.00039907
C       -2.38226995       8.46694348      16.28093832       10      -0.00128962       0.00123574      -0.00134149
C       -1.15503143       9.17434352      16.73374398       10      -0.00165344       0.00050888      -0.14918559
C        4.89242377       0.06293473      16.77556620       10      -0.00278901       0.00127004       0.05693575
C        6.10849478       0.77031654      16.82338490       10      -0.00113478       0.00037082       0.02553457
C        3.67851463       2.16434609      16.77582123       10      -0.00044685       0.00004248       0.00370240
C        4.89208323       2.86641516      16.79042752       10       0.00031540       0.00044383       0.00885452
C        2.46677986       4.26736338      16.78774591       10      -0.00191135      -0.00029231       0.00214615
C        3.67936358       4.96691753      16.78274514       10      -0.00271184       0.00069944       0.00304963
C        1.25178324       6.36841164      16.77582123       10      -0.00291995       0.00176634      -0.01686537
C        2.46695689       7.06773359      16.79042752       10      -0.00153495       0.00191108       0.00322902
C        0.03846343       8.47059948      16.77556620       10      -0.00017225       0.00216972       0.03738345
C        1.25924957       9.16975053      16.82338490       10       0.00248008       0.00160907       0.00858296
C        7.31708704       0.06973282      16.83867695       10       0.00188977       0.00287572       0.01671100
C        8.52938412       0.77005488      16.84561547       10       0.00153722       0.00298318       0.02537286
C        6.10335919       2.16775438      16.81234193       10       0.00126243       0.00035001       0.00125500
C        7.31566119       2.86746408      16.82628722       10       0.00103123       0.00094586       0.01054806
C        4.89097011       4.26743585      16.78774591       10      -0.00269957       0.00159004       0.00129257
C        6.10516284       4.96689067      16.79042752       10      -0.00338372       0.00254182       0.00200580
C        3.67915226       6.36682513      16.78774591       10      -0.00284648       0.00076434       0.00132702
C        4.89198864       7.06810510      16.79042752       10      -0.00240031       0.00133672       0.01481855
C        2.46708241       8.46601662      16.81234193       10       0.00353300       0.00214241       0.01410969
C        3.67870705       9.16642472      16.82628722       10       0.00346214       0.00182155       0.01660608
C        9.73895132       0.06927823      16.84399765       10      -0.00124667       0.00044625       0.02315668
C       10.94816341       0.77037864      16.84561547       10       0.00273473       0.00026447       0.01364979
C        8.52762447       2.16758626      16.84399765       10       0.00119909       0.00103268       0.01503417
C        9.73876892       2.86512522      16.84561547       10       0.00118796      -0.00133931       0.02729124
C        7.31567659       4.26704569      16.81234193       10      -0.00379899       0.00096571       0.00403246
C        8.52854163       4.96162183      16.82338490       10      -0.00169464      -0.00122106       0.01991946
C        6.10640022       6.36904123      16.77582123       10      -0.00301488       0.00247312      -0.00284657
C        7.31513184       7.06690004      16.74348752       10      -0.00180689       0.00094084      -0.01383013
C        4.89000080       8.46652578      16.81234193       10       0.00113816       0.00022394       0.01910674
C        6.09790933       9.16996602      16.82338490       10       0.00484820       0.00125981       0.01002059
O       -2.37968625       8.47135005      14.95788197       11      -0.00337027       0.00275912       0.00129797
