130
Lattice="12.12 0.0 0.0 -6.06 10.496227893867395 0.0 0.0 0.0 40.0" Properties=species:S:1:pos:R:3:tags:I:1:forces:R:3 energy=-1200.540447604527 stress="0.002813762151616809 5.904639171183089e-08 -6.146451866600421e-09 5.904639171183089e-08 0.002813637564473059 1.210172791849716e-07 -6.146451866600421e-09 1.210172791849716e-07 0.0020723688480179334" pbc="T T F"
C       -0.00004266      -0.00005234      10.00233027        2       0.00002107      -0.00005580      -0.00325069
Ti      -0.00002495       1.74939569       8.69090339        0       0.00001568      -0.00007070       0.00025689
Ti       1.51513545       0.87476249      11.30772283        0       0.00014995       0.00002369      -0.00282443
O       -0.00011028       1.75001785      12.23008024        3      -0.00006164      -0.00009668       0.07154079
O        1.51496385       0.87466116       7.77028228        1      -0.00008706      -0.00001306      -0.00379886
C       -1.51505380       2.62418352      10.00229048        2      -0.00009186       0.00015325      -0.00375536
Ti      -1.51504032       4.37349535       8.69074890        0      -0.00001008      -0.00006948      -0.00096531
Ti       0.00000056       3.49900393      11.30763434        0      -0.00003746       0.00014926      -0.00341701
O       -1.51525361       4.37497849      12.23008024        3      -0.00000290      -0.00001343       0.09289422
O        0.00000042       3.49857119       7.77008168        1       0.00005615      -0.00044601      -0.00461193
C       -3.03004855       5.24808005      10.00168743        2       0.00012949       0.00006709      -0.00426673
Ti      -3.02994546       6.99743390       8.69076611        0      -0.00002267       0.00001880      -0.00106211
Ti      -1.51470292       6.12293050      11.30756402        0       0.00017684       0.00011128      -0.00424056
O       -3.02867874       6.99653287      12.23008024        3      -0.00007877       0.00010334       0.09688408
O       -1.51504683       6.12276286       7.76997850        1      -0.00016512      -0.00012524      -0.00548064
C       -4.54490889       7.87208591      10.00227802        2       0.00007895      -0.00010713      -0.00378795
Ti      -4.54498926       9.62149654       8.69091648        0      -0.00009648       0.00004363       0.00014319
Ti      -3.02976230       8.74671885      11.30766631        0       0.00022300      -0.00004446      -0.00346560
O       -4.54448471       9.62104060      12.23008024        3      -0.00003354       0.00002297       0.06500127
O       -3.03014190       8.74695316       7.77008752        1      -0.00034410       0.00024802      -0.00469445
C        3.03017574      -0.00005357      10.00235474        2       0.00006584      -0.00001266      -0.00367539
Ti       3.03015080       1.74945538       8.69088221        0       0.00003562       0.00006257      -0.00012841
Ti       4.54520234       0.87450304      11.30774598        0       0.00012859      -0.00004172      -0.00351098
O        3.03093486       1.74992855      12.23008024        3       0.00010972      -0.00000500       0.06048092
O        4.54489596       0.87470509       7.77004613        1      -0.00016516       0.00013547      -0.00473585
C        1.51505302       2.62422361      10.00232277        2       0.00006158       0.00007622      -0.00355608
Ti       1.51502432       4.37349222       8.69075054        0       0.00003548      -0.00011740      -0.00082263
Ti       3.02999945       3.49901285      11.30772012        0      -0.00000395       0.00023582      -0.00349325
O        1.51512094       4.37508125      12.23008024        3      -0.00021380      -0.00022787       0.08947466
O        3.02996807       3.49863150       7.77003829        1      -0.00001255      -0.00019361      -0.00477615
C       -0.00001764       5.24804806      10.00153101        2       0.00001364       0.00013480      -0.00424525
Ti       0.00000502       6.99750023       8.69079074        0       0.00001584       0.00001261      -0.00146664
Ti       1.51471205       6.12291021      11.30753838        0      -0.00023484       0.00006827      -0.00424299
O        0.00013206       6.99776224      12.23008024        3       0.00001227      -0.00006267       0.10855452
O        1.51503967       6.12275390       7.76998569        1       0.00017249      -0.00021290      -0.00546542
C       -1.51508902       7.87217002      10.00146573        2       0.00018808      -0.00001055      -0.00430420
Ti      -1.51494011       9.62151561       8.69080122        0      -0.00008833       0.00006660      -0.00091924
Ti      -0.00003494       8.74657130      11.30753303        0      -0.00000465      -0.00009781      -0.00431486
O       -1.51343696       9.62064570      12.23008024        3      -0.00009355       0.00007717       0.09305908
O       -0.00001256       8.74692651       7.77001204        1      -0.00007380       0.00024732      -0.00545187
C        6.05998499       0.00013375      10.00174246        2       0.00007035      -0.00008309      -0.00414068
Ti       6.06003455       1.74940805       8.69088532        0       0.00000296       0.00003488      -0.00077466
Ti       7.57486083       0.87436723      11.30772506        0      -0.00003304      -0.00008336      -0.00359361
O        6.06038862       1.75015533      12.23008024        3      -0.00012464      -0.00011266       0.10595718
O        7.57508289       0.87468736       7.77002888        1       0.00012625       0.00010754      -0.00484867
C        4.54495537       2.62402857      10.00186835        2       0.00015784       0.00018788      -0.00397147
Ti       4.54506852       4.37345112       8.69088784        0       0.00005262       0.00002118      -0.00072061
Ti       6.06001704       3.49878103      11.30774223        0       0.00009740       0.00009132      -0.00379252
O        4.54593632       4.37363276      12.23008024        3      -0.00005793       0.00009467       0.10801606
O        6.05997673       3.49871509       7.77001295        1      -0.00002643      -0.00002941      -0.00505461
C        3.03006482       5.24806105      10.00171942        2      -0.00006964       0.00011204      -0.00406683
Ti       3.02992900       6.99746507       8.69077797        0      -0.00001090       0.00000447      -0.00098070
Ti       4.54463236       6.12288122      11.30770457        0      -0.00024772       0.00014864      -0.00367036
O        3.02845589       6.99674357      12.23008024        3      -0.00008581       0.00015583       0.09958891
O        4.54503941       6.12286922       7.77001295        1       0.00008114       0.00011594      -0.00497010
C        1.51507276       7.87218931      10.00138121        2      -0.00019371      -0.00005293      -0.00438132
Ti       1.51494497       9.62149553       8.69080707        0       0.00003025       0.00000661      -0.00097746
Ti       3.02975484       8.74673032      11.30768216        0      -0.00021275      -0.00000406      -0.00357155
O        1.51347594       9.62052216      12.23008024        3       0.00004414       0.00009708       0.09919301
O        3.03012909       8.74694600       7.77005836        1       0.00039314       0.00022176      -0.00473462
C        9.08986441      -0.00007155      10.00229598        2      -0.00018215       0.00002103      -0.00375997
Ti       9.08983332       1.74947112       8.69087370        0      -0.00006395       0.00006679      -0.00040605
Ti      10.60476120       0.87479959      11.30773454        0      -0.00005289       0.00005561      -0.00292886
O        9.08878154       1.75005750      12.23008024        3       0.00002597      -0.00000841       0.06899177
O       10.60505211       0.87466485       7.77023606        1       0.00013235      -0.00004345      -0.00387060
C        7.57505466       2.62402479      10.00166994        2      -0.00010069       0.00011158      -0.00399631
Ti       7.57494417       4.37341833       8.69091001        0      -0.00006967       0.00000875      -0.00082918
Ti       9.09004719       3.49900464      11.30770507        0       0.00007325       0.00016039      -0.00362280
O        7.57433512       4.37336052      12.23008024        3       0.00018999       0.00015234       0.11029288
O        9.09004922       3.49864521       7.77001253        1      -0.00000060      -0.00015613      -0.00489288
C        6.05999683       5.24819740      10.00155529        2      -0.00000871      -0.00009632      -0.00417893
Ti       6.06000360       6.99728306       8.69085814        0      -0.00000267      -0.00013603      -0.00044002
Ti       7.57530187       6.12280259      11.30771499        0       0.00022652       0.00010453      -0.00373078
O        6.05997793       6.99586449      12.23008024        3       0.00006945      -0.00006767       0.07504041
O        7.57495530       6.12288684       7.77000854        1      -0.00009953       0.00010418      -0.00497788
C        4.54488281       7.87210682      10.00224969        2      -0.00008077      -0.00012112      -0.00367521
Ti       4.54497630       9.62151348       8.69089157        0       0.00010362       0.00004095       0.00000187
Ti       6.05998912       8.74654535      11.30773246        0      -0.00003589      -0.00017705      -0.00290576
O        4.54437529       9.62111195      12.23008024        3       0.00004084       0.00010741       0.05920953
O        6.06001251       8.74692949       7.77022199        1      -0.00000077       0.00013786      -0.00398003
C        0.04483607       0.06749220      17.24546486       10       0.00568930       0.00208168       0.00171597
C        1.25701911       0.76728977      17.24546486       10      -0.00027126      -0.00004603      -0.00004563
C       -1.16722508       2.16694376      17.24546486       10       0.00040991       0.00023360      -0.01197220
C        0.04501696       2.86686675      17.24546486       10      -0.00063746       0.00115595      -0.00984197
C       -2.37942822       4.26620079      17.24546486       10       0.00091338      -0.00083455      -0.03636651
C       -1.16683482       4.96625176      17.24546486       10      -0.00054856       0.00023247      -0.03864005
C       -3.59111759       6.36490296      17.24546486       10       0.00110342      -0.00072324      -0.03377831
C       -2.37849908       7.06493999      17.24546486       10       0.00027292      -0.00101730      -0.03809173
C       -4.80298189       8.46424293      17.24546486       10       0.00386695      -0.00030192      -0.01621505
C       -3.59053255       9.16407531      17.24546486       10      -0.00373244      -0.00200164      -0.01246123
C        2.46905482       0.06753149      17.24546486       10       0.00226795       0.00168981      -0.01332509
C        3.68112330       0.76707990      17.24546486       10       0.00321430       0.00096042      -0.03020394
C        1.25715404       2.16684666      17.24546486       10       0.00027520       0.00185162      -0.01035794
C        2.46902963       2.86678350      17.24546486       10      -0.00009223       0.00052357      -0.02833239
C        0.04495219       4.26627608      17.24546486       10       0.00044882       0.00096712      -0.02637362
C        1.25682668       4.96625566      17.24546486       10       0.00040545       0.00040384      -0.03715709
C       -1.16702463       6.36526726      17.24546486       10       0.00127336       0.00069812      -0.01549327
C        0.04507760       7.06521375      17.24546486       10       0.00103910      -0.00056926      -0.03783670
C       -2.37868940       8.46428882      17.24546486       10      -0.00033451       0.00051582      -0.02561855
C       -1.16659890       9.16387607      17.24546486       10       0.00020665      -0.00023747      -0.03765104
C        4.89319709       0.06770703      17.24546486       10       0.00155068      -0.00005924      -0.03321069
C        6.10497511       0.76713375      17.24546486       10       0.00113837       0.00036854      -0.02037040
C        3.68133721       2.16697202      17.24546486       10      -0.00033465       0.00073782      -0.02113082
C        4.89316503       2.86658743      17.24546486       10      -0.00079221       0.00004959      -0.01623449
C        2.46935584       4.26619316      17.24546486       10       0.00014650       0.00002172      -0.03572301
C        3.68098002       4.96590374      17.24546486       10      -0.00014010       0.00001609      -0.02033509
C        1.25697014       6.36530470      17.24546486       10       0.00079057      -0.00008014      -0.01428913
C        2.46847075       7.06502170      17.24546486       10       0.00036464      -0.00074655      -0.03842130
C        0.04509476       8.46455652      17.24546486       10      -0.00116077      -0.00044316      -0.01355034
C        1.25679821       9.16383988      17.24546486       10      -0.00155123       0.00001162      -0.03940447
C        7.31671040       0.06770807      17.24546486       10      -0.00023755       0.00018834      -0.02978841
C        8.52863019       0.76716292      17.24546486       10       0.00030694      -0.00060213      -0.03323970
C        6.10512845       2.16729031      17.24546486       10      -0.00109592       0.00047260      -0.03907466
C        7.31698425       2.86660176      17.24546486       10      -0.00133748      -0.00082888      -0.01404125
C        4.89354393       4.26592385      17.24546486       10      -0.00041860      -0.00042105      -0.04018121
C        6.10500221       4.96584110      17.24546486       10      -0.00044430      -0.00101190      -0.01258176
C        3.68106562       6.36499556      17.24546486       10       0.00015176      -0.00048811      -0.02965886
C        4.89274533       7.06491025      17.24546486       10      -0.00021437      -0.00185021      -0.03262300
C        2.46891708       8.46440079      17.24546486       10      -0.00316123      -0.00098726      -0.02318770
C        3.68077219       9.16416160      17.24546486       10      -0.00221709      -0.00174500      -0.01368014
C        9.74070345       0.06767622      17.24546486       10       0.00376583       0.00194710      -0.01889067
C       10.95286804       0.76732754      17.24546486       10      -0.00389873       0.00021467      -0.00268872
C        8.52869501       2.16707036      17.24546486       10      -0.00030945       0.00092678      -0.02580858
C        9.74094248       2.86681487      17.24546486       10      -0.00114669       0.00061013      -0.02909742
C        7.31651758       4.26588999      17.24546486       10       0.00053887      -0.00034511      -0.03987621
C        8.52902233       4.96582724      17.24546486       10      -0.00089588       0.00072201      -0.01824433
C        6.10502615       6.36492900      17.24546486       10       0.00064775      -0.00118397      -0.02818133
C        7.31721410       7.06481642      17.24546486       10      -0.00041004      -0.00026935      -0.03039616
C        4.89311802       8.46431344      17.24546486       10       0.00034178       0.00000360      -0.02032491
C        6.10514318       9.16420692      17.24546486       10      -0.00567282      -0.00214471      -0.00512422
