132
Lattice="12.12 0.0 0.0 -6.06 10.496227893867395 0.0 0.0 0.0 40.0" Properties=species:S:1:pos:R:3:tags:I:1:forces:R:3 stress="0.002827288406399604 2.6197519573603918e-06 -2.178133409926859e-06 2.6197519573603918e-06 0.0028310705393125935 3.5854695215071734e-06 -2.178133409926859e-06 3.5854695215071734e-06 0.002002493129262033" energy=-1208.9331972911284 pbc="T T F"
C        0.00006193       0.00385364      10.00243725        2      -0.00039749       0.00049687       0.00169764
Ti       0.00016768       1.75264457       8.71291935        0      -0.00095556       0.00095626       0.00282592
Ti       1.51433023       0.87868964      11.29087476        0       0.00158977      -0.00082983       0.00034938
O        0.00157061       1.75263742      12.23008024        3      -0.00031589       0.00056956       0.05562082
O        1.51387073       0.87881525       7.77151798        1       0.00148112      -0.00066856       0.00040895
C       -1.51515508       2.62766545      10.00552160        2      -0.00044946       0.00045626       0.00187770
Ti      -1.51511568       4.37749163       8.71192984        0      -0.00083114       0.00027391       0.00443676
Ti      -0.00328061       3.50243266      11.29903086        0       0.00222470       0.00081818       0.00254839
O       -1.51571517       4.37856288      12.23008024        3      -0.00031281       0.00022179       0.06734205
O       -0.00103929       3.50223125       7.77325049        1       0.00064152       0.00023370       0.00262362
C       -3.03064372       5.25291916      10.00213082        2       0.00027665       0.00072743       0.00189156
Ti      -3.03048540       7.00158665       8.71044621        0       0.00008594      -0.00123379       0.00097791
Ti      -1.51600101       6.12682694      11.29181703        0       0.00003644       0.00252329       0.00130970
O       -3.03145488       7.00230098      12.23008024        3      -0.00017896       0.00127155       0.08689476
O       -1.51524849       6.12574656       7.77179650        1      -0.00017493       0.00190142       0.00089480
C       -4.54538670       7.87630575      10.00101773        2      -0.00043363       0.00002352      -0.00036405
Ti      -4.54533594       9.62519076       8.71051744        0      -0.00102359       0.00108919      -0.00058773
Ti      -3.03060148       8.75089799      11.29138823        0       0.00038630       0.00147046      -0.00167287
O       -4.54557813       9.62514823      12.23008024        3       0.00082013       0.00029171       0.06927340
O       -3.03054828       8.75065317       7.77064225        1      -0.00000343       0.00063781       0.00024498
C        3.02996394       0.00358579      10.00096126        2      -0.00098497       0.00076239      -0.00052206
Ti       3.02964476       1.75297934       8.71061600        0      -0.00101059       0.00078099      -0.00079498
Ti       4.54488715       0.87876430      11.29166081        0      -0.00126641      -0.00067546      -0.00196133
O        3.02983819       1.75356738      12.23008024        3       0.00067940      -0.00037368       0.08164644
O        4.54466694       0.87867712       7.77086832        1      -0.00068560      -0.00097745       0.00003906
C        1.51477143       2.62742448      10.00204757        2      -0.00016960       0.00046534       0.00157758
Ti       1.51433827       4.37679011       8.71196605        0      -0.00044602       0.00051285       0.00107346
Ti       3.02899114       3.50228286      11.29163260        0       0.00149274       0.00071154      -0.00074593
O        1.51650300       4.37780471      12.23008024        3       0.00142687       0.00076989       0.09372505
O        3.02933044       3.50258952       7.77162104        1      -0.00051821       0.00039225      -0.00036699
C       -0.00066828       5.25186762      10.00273018        2       0.00017487       0.00081699       0.00167937
Ti      -0.00045798       7.00130709       8.71117891        0      -0.00065208      -0.00066075       0.00020807
Ti       1.51411237       6.12648202      11.29198862        0       0.00124438       0.00156437      -0.00141454
O       -0.00008571       7.00176645      12.23008024        3       0.00061670       0.00134912       0.09555891
O        1.51437359       6.12624660       7.77203847        1      -0.00019107       0.00040824      -0.00038104
C       -1.51558932       7.87666220      10.00106136        2      -0.00013183       0.00003708       0.00034090
Ti      -1.51545109       9.62527256       8.71071663        0       0.00046668       0.00013387      -0.00260421
Ti      -0.00026663       8.75094752      11.29146220        0      -0.00198422       0.00081220      -0.00103176
O       -1.51578203       9.62568153      12.23008024        3      -0.00054398       0.00058017       0.09407654
O        0.00018370       8.75041122       7.77141307        1      -0.00181751       0.00142656       0.00026716
C        6.05865687       0.00351756      10.00132182        2       0.00031647       0.00063946      -0.00023964
Ti       6.05930767       1.75283883       8.71089996        0       0.00099256       0.00083098      -0.00068398
Ti       7.57460557       0.87977219      11.29290835        0      -0.00272120      -0.00147296      -0.00006480
O        6.05921181       1.75380327      12.23008024        3      -0.00134704      -0.00062450       0.08700140
O        7.57551851       0.87859279       7.77256821        1      -0.00213573      -0.00001200      -0.00031806
C        4.54442662       2.62762270      10.00120932        2      -0.00020038       0.00053916      -0.00098405
Ti       4.54450667       4.37707402       8.71102080        0       0.00016623       0.00028717      -0.00148203
Ti       6.05937164       3.50248408      11.29072786        0      -0.00125077      -0.00046635      -0.00178096
O        4.54356869       4.37768860      12.23008024        3       0.00009294      -0.00015901       0.08197797
O        6.05973539       3.50260017       7.77171950        1       0.00014206       0.00045509      -0.00033104
C        3.02927157       5.25187808      10.00154199        2       0.00051887       0.00043276       0.00001103
Ti       3.02946982       7.00133258       8.71136922        0      -0.00019395       0.00041468      -0.00151909
Ti       4.54447368       6.12676991      11.29215621        0      -0.00032184       0.00019257       0.00001896
O        3.02992255       7.00161690      12.23008024        3       0.00136183       0.00065143       0.09505715
O        4.54451676       6.12650901       7.77165596        1      -0.00028383       0.00074129      -0.00004376
C        1.51439718       7.87609364      10.00176893        2       0.00003597       0.00021483      -0.00044609
Ti       1.51441998       9.62522303       8.71158961        0       0.00053779       0.00135734      -0.00056413
Ti       3.02946499       8.75168899      11.29256573        0      -0.00102916      -0.00088987      -0.00183851
O        1.51427576       9.62483234      12.23008024        3      -0.00071763       0.00028246       0.08821508
O        3.02969484       8.75109961       7.77249652        1       0.00007663       0.00022486      -0.00090021
C        9.08972061       0.00441593      10.00368039        2      -0.00068177       0.00032708       0.00082267
Ti       9.08951187       1.75270821       8.71295221        0      -0.00032251       0.00118012       0.00376582
Ti      10.60328839       0.88147061      11.30111715        0       0.00007727      -0.00191053       0.00166611
O        9.08739676       1.75446909      12.23008024        3      -0.00033040       0.00168279       0.07638913
O       10.60434147       0.87893506       7.77378263        1       0.00075114       0.00015446       0.00175731
C        7.57395085       2.62781982      10.00230903        2      -0.00021616      -0.00002281       0.00115910
Ti       7.57449001       4.37722689       8.71145049        0       0.00028702       0.00025490       0.00190190
Ti       9.09042589       3.50326265      11.29589438        0      -0.00085551      -0.00050774       0.00292318
O        7.57392473       4.37765846      12.23008024        3      -0.00163133       0.00035918       0.10248616
O        9.09007332       3.50217371       7.77348014        1      -0.00059682       0.00061856       0.00164560
C        6.05965058       5.25201147      10.00177367        2       0.00004297       0.00000572      -0.00006418
Ti       6.05956994       7.00136431       8.71104478        0       0.00030527       0.00011398      -0.00115544
Ti       7.57470104       6.12713526      11.29142689        0      -0.00022126       0.00111537      -0.00147259
O        6.05876434       7.00205871      12.23008024        3       0.00032682       0.00036295       0.08255565
O        7.57444445       6.12635529       7.77148658        1       0.00016707       0.00011347       0.00024088
C        4.54446498       7.87631181      10.00157357        2       0.00032814       0.00013263      -0.00002591
Ti       4.54477007       9.62564579       8.71252204        0      -0.00034912       0.00071321       0.00019429
Ti       6.05931723       8.75161431      11.29152792        0       0.00058952      -0.00119183      -0.00082210
O        4.54465464       9.62358310      12.23008024        3      -0.00046190      -0.00062321       0.08152855
O        6.05919339       8.75085732       7.77168175        1      -0.00040080       0.00101001       0.00001624
C        0.06833787       0.05074617      17.60779277       10      -0.00028404      -0.00253376      -0.02618683
C        1.27762127       0.75259404      17.61618100       10       0.00206307       0.00017277      -0.00271199
C       -1.12695427       2.14093388      17.58342210       10      -0.00194933      -0.00078920       0.50673847
C        0.06518706       2.85047845      17.59106084       10      -0.00197977      -0.00282246       0.00608269
C       -2.36263625       4.27753140      17.58341655       10       0.00043455      -0.00175928       0.24342521
C       -1.15106022       4.95542605      17.59105828       10      -0.00167577      -0.00117234       0.03009401
C       -3.57415588       6.35905411      17.60779222       10       0.00423500      -0.00293133       0.01120744
C       -2.36142815       7.05523638      17.61618080       10      -0.00090890       0.00078599       0.01494319
C       -4.78492084       8.45196513      17.60589983       10      -0.00173752      -0.00280537      -0.01560377
C       -3.57319613       9.15139300      17.61718949       10       0.00097059       0.00000031      -0.03432901
C        2.48813280       0.05367597      17.61821451       10      -0.00074464       0.00062644      -0.02639478
C        3.69839770       0.75427490      17.61718940       10       0.00049650      -0.00258945      -0.01925809
C        1.28080838       2.15083735      17.60779298       10      -0.00043315       0.00019776      -0.03285542
C        2.48793603       2.85347011      17.59873285       10       0.00008413      -0.00138797      -0.02533329
C        0.06205275       4.25283992      17.56493296       10      -0.00281056      -0.00108483       0.14055986
C        1.27272276       4.95213031      17.57660291       10      -0.00087584      -0.00138036      -0.06959919
C       -1.14913139       6.35797585      17.60779222       10      -0.00017075      -0.00132495      -0.00491259
C        0.06285509       7.05330037      17.59873295       10      -0.00001032      -0.00161116      -0.03027503
C       -2.36144324       8.45336650      17.61821472       10      -0.00076832       0.00107941      -0.02463193
C       -1.14957588       9.15140083      17.61718949       10      -0.00032132      -0.00214572      -0.02120852
C        4.90874921       0.05373932      17.61821451       10       0.00134925       0.00149752      -0.02454355
C        6.11954825       0.75271087      17.61618100       10      -0.00062939      -0.00289833      -0.00037655
C        3.69825886       2.15339054      17.60589970       10       0.00199751       0.00016417      -0.01625044
C        4.90877724       2.85334364      17.59873285       10       0.00126175      -0.00056371      -0.03083605
C        2.48619710       4.25279513      17.58484935       10       0.00048556      -0.00080252      -0.03874813
C        3.69790157       4.95284966      17.58206149       10      -0.00216578      -0.00010407      -0.01947496
C        1.27441331       6.35276975      17.58484925       10      -0.00027535       0.00014571      -0.03687838
C        2.48627568       7.05248906      17.58206138       10      -0.00108240      -0.00095780      -0.00560847
C        0.06200664       8.45186557      17.60589983       10       0.00230637       0.00092286      -0.00787038
C        1.27359346       9.15057731      17.59873270       10       0.00128140      -0.00380481      -0.03086557
C        7.32958990       0.05149638      17.60779277       10       0.00277546       0.00063785      -0.00424023
C        8.54335277       0.75457064      17.59106065       10       0.00092240      -0.00257293       0.03652824
C        6.11620694       2.15105537      17.60779298       10       0.00223487      -0.00037892       0.02083057
C        7.33142657       2.85106342      17.59106084       10      -0.00016430      -0.00041112       0.00359038
C        4.90997823       4.25286481      17.58484935       10      -0.00138620       0.00083636      -0.02923773
C        6.12359850       4.95223390      17.57660291       10       0.00044147       0.00066530      -0.04814807
C        3.69827250       6.35255621      17.57898349       10       0.00073562       0.00041239      -0.04798312
C        4.91032590       7.05261167      17.58206138       10       0.00175056       0.00140992      -0.00658404
C        2.48624058       8.45192020      17.58484908       10       0.00214098       0.00094905      -0.04123755
C        3.69843331       9.15369513      17.57660250       10       0.00066124       0.00031566      -0.07449692
C        9.75868240       0.05566115      17.56493291       10      -0.00138818       0.00061591       0.13272461
C       10.97472715       0.75400455      17.59106065       10       0.00178179      -0.00103743       0.01622497
C        8.52441662       2.14227272      17.58342210       10       0.00176421      -0.00079818       0.27366945
C        9.75663334       2.85390658      17.33906284       10      -0.00243038      -0.00057818      -2.00213950
C        7.33440110       4.25335404      17.56493296       10      -0.00046155      -0.00205952       0.14268237
C        8.54744851       4.95669999      17.59105828       10      -0.00411342       0.00023105      -0.00064150
C        6.12252658       6.35287577      17.58484925       10       0.00028865       0.00100786      -0.03692141
C        7.33399395       7.05357489      17.59873295       10       0.00313530      -0.00056942      -0.02023335
C        4.91075711       8.45202879      17.58484908       10      -0.00211443      -0.00005446      -0.04326047
C        6.12357854       9.15010740      17.59873270       10       0.00299907       0.00148389      -0.03432584
O        9.83555272       2.81497699      15.75538574       11       0.00150492       0.00356828      -0.00285870
H        9.01739966       3.19103731      15.38599528       12       0.00176668      -0.00139184       0.00219889
