131
Lattice="12.12 0.0 0.0 -6.06 10.496227893867395 0.0 0.0 0.0 40.0" Properties=species:S:1:pos:R:3:tags:I:1:forces:R:3 stress="0.00283614494268802 3.5319859946736066e-07 -1.5777242631765009e-06 3.5319859946736066e-07 0.002831965753839334 -6.542995596981267e-06 -1.5777242631765009e-06 -6.542995596981267e-06 0.0028545855331420485" energy=-1205.2439586705866 pbc="T T F"
C        0.23956979      -0.07685452       9.96226488        2      -0.00203305       0.00024303       0.00018076
Ti       0.25908066       1.66008183       8.67428081        0      -0.00190578      -0.00206089       0.00071360
Ti       1.78022100       0.81579052      11.26734763        0      -0.00323841      -0.00582063      -0.00018539
O        0.24288134       1.66983605      12.23008024        3      -0.00088154       0.00176883      -0.13342713
O        1.78268771       0.77570097       7.77276826        1      -0.00368868      -0.00419813       0.00101840
C       -1.25595676       2.53309681       9.96418790        2       0.00115165       0.00064583      -0.00155898
Ti      -1.25646223       4.28294297       8.67384978        0      -0.00094068      -0.00153506      -0.00058232
Ti       0.25694874       3.40666867      11.31063219        0      -0.00032109      -0.00094554       0.00240948
O       -1.25482263       4.26122685      12.23008024        3       0.00079813      -0.00092196      -0.13324929
O        0.26214922       3.41052008       7.75723764        1      -0.00088424       0.00169356       0.00227695
C       -2.77007379       5.13121493       9.96068452        2       0.00076270       0.00021795      -0.00390621
Ti      -2.77030635       6.89610657       8.72791671        0      -0.00096498       0.00021489       0.00111996
Ti      -1.22521540       6.01924285      11.26826115        0      -0.00407182      -0.00405720       0.00079708
O       -2.76955077       6.72367589      12.23008024        3       0.00016924      -0.00559480      -0.04107402
O       -1.26097831       6.04484893       7.77424087        1      -0.00080312       0.00069845      -0.00255122
C       -4.29230633       7.77709046      10.01946221        2      -0.00154419      -0.00282586      -0.00146340
Ti      -4.29420275       9.53938167       8.72524567        0      -0.00317852       0.00033889       0.00534734
Ti      -2.77295175       8.64758303      12.04329685        0      -0.00541712       0.00065287      -0.00492387
O       -4.43159137       9.61829027      12.23008024        3      -0.00053431      -0.00057594      -0.01724998
O       -2.76963172       8.65730194       7.85866700        1      -0.00053324      -0.00114775      -0.00376449
C        3.28975579      -0.07577322      10.01471353        2       0.00032983       0.00083082      -0.00281463
Ti       3.29026025       1.65372138       8.70031798        0       0.00125751      -0.00450789      -0.00060883
Ti       4.80017886       0.81422739      11.26745962        0      -0.00037819      -0.00327273       0.00233747
O        3.29064144       1.67382940      12.23008024        3      -0.00200578      -0.00013221      -0.06748277
O        4.79872626       0.77583838       7.77354480        1       0.00069873      -0.00422700       0.00035386
C        1.76858101       2.54652853       9.97477274        2       0.00092574      -0.00171532      -0.00068117
Ti       1.77618791       4.28704705       8.67589289        0      -0.00148013      -0.00440040      -0.00149486
Ti       3.29039625       3.40939751      11.30210041        0      -0.00044001      -0.00244568      -0.00075623
O        1.77355244       4.28358642      12.23008024        3       0.00029841      -0.00065912      -0.11578189
O        3.28972844       3.39890248       7.76496282        1       0.00181222      -0.00150006      -0.00056382
C        0.26629982       5.14726486       9.97504305        2       0.00084436      -0.00077904      -0.00115826
Ti       0.25128522       6.91355333       8.70180141        0       0.00287636      -0.00213674      -0.00392559
Ti       1.77550385       6.03424918      11.30098436        0      -0.00227378       0.00156979       0.00076104
O        0.27257476       6.90119305      12.23008024        3      -0.00248026      -0.00069649      -0.06434341
O        1.76293851       6.04171186       7.76516372        1       0.00492119      -0.00419031       0.00228218
C       -1.24663743       7.77612308      10.01808258        2       0.00107818      -0.00162456       0.00081477
Ti      -1.24547477       9.53984666       8.72610137        0      -0.00187341      -0.00150680       0.00090128
Ti       0.28176625       8.63870760      11.26950381        0      -0.00071767       0.00276842       0.00073324
O       -1.11389818       9.61439627      12.23008024        3       0.00128551       0.00050812       0.00123108
O        0.24694476       8.65815765       7.77514699        1      -0.00106021      -0.00195769      -0.00277970
C        6.34066815      -0.07671143       9.96460598        2      -0.00107373      -0.00267395      -0.00469623
Ti       6.32220711       1.66003884       8.67525063        0      -0.00253450       0.00012805      -0.00039264
Ti       7.83274898       0.78448575      11.31042778        0      -0.00500481      -0.00339900       0.00153273
O        6.33726661       1.66949305      12.23008024        3       0.00016898       0.00242728      -0.13200925
O        7.83389184       0.78436036       7.75893925        1      -0.00056045       0.00025469      -0.00327099
C        4.81208826       2.54637364       9.97476327        2      -0.00370624      -0.00199782       0.00038526
Ti       4.80354901       4.28593745       8.67633628        0       0.00301985      -0.00243224      -0.00172215
Ti       6.32332886       3.40662752      11.31156224        0       0.00119689      -0.00256136       0.00262752
O        4.80734199       4.28344694      12.23008024        3      -0.00192058       0.00033309      -0.11381678
O        6.31826050       3.41044742       7.75802930        1       0.00064554      -0.00118425       0.00098076
C        3.28941978       5.15981209       9.96901604        2       0.00230918      -0.00136656       0.00039215
Ti       3.28892092       6.90736504       8.67739180        0       0.00232524       0.00062934      -0.00231037
Ti       4.80515856       6.03427755      11.30051526        0      -0.00028198       0.00040703       0.00109535
O        3.29023203       6.91160713      12.23008024        3       0.00046673      -0.00160195      -0.10979530
O        4.81525345       6.04096980       7.76566850        1       0.00191223      -0.00220553      -0.00044097
C        1.78714477       7.78441639       9.97530257        2      -0.00051204      -0.00215293      -0.00135101
Ti       1.77518463       9.53375126       8.67620825        0       0.00029001      -0.00027613      -0.00062804
Ti       3.29017603       8.66255398      11.31280742        0      -0.00079395       0.00089947       0.00398426
O        1.79230075       9.54250622      12.23008024        3      -0.00058474      -0.00272912      -0.13054922
O        3.29012858       8.65681229       7.75866292        1      -0.00211818      -0.00205757       0.00245637
C        9.35051862      -0.08699712       9.96534941        2      -0.00090151      -0.00331805      -0.00138982
Ti       9.35069639       1.65917845       8.69889084        0      -0.00064824      -0.00057805      -0.00337978
Ti      10.86865397       0.78418689      11.30955820        0      -0.00068730      -0.00071710       0.00019921
O        9.35066100       1.65930279      12.23008024        3       0.00003035      -0.00107835      -0.14730851
O       10.86698878       0.78446239       7.75808299        1      -0.00179564      -0.00036810      -0.00242543
C        7.83707291       2.53293709       9.96481009        2      -0.00337117       0.00114570      -0.00349171
Ti       7.83737167       4.28264753       8.67424918        0      -0.00161433       0.00183799      -0.00172415
Ti       9.35056012       3.41038164      11.30833389        0      -0.00092721       0.00264084       0.00161574
O        7.83530978       4.26114001      12.23008024        3      -0.00100990      -0.00163424      -0.13305938
O        9.35039248       3.40993209       7.75721213        1      -0.00111115      -0.00099909      -0.00308860
C        6.31365129       5.14699028       9.97483351        2      -0.00038069       0.00267894       0.00098950
Ti       6.32671968       6.91224477       8.70078657        0       0.00444024       0.00029473       0.00049468
Ti       7.80591616       6.01893450      11.26810833        0       0.00367198       0.00150228       0.00265987
O        6.30785260       6.90076015      12.23008024        3      -0.00113661      -0.00116197      -0.06741435
O        7.84021584       6.04471420       7.77420395        1       0.00393784       0.00061285       0.00069843
C        4.79286365       7.78388080       9.97519158        2       0.00175409      -0.00137749      -0.00113494
Ti       4.80553862       9.53384045       8.67559368        0       0.00124200       0.00004323      -0.00030794
Ti       6.29761221       8.63826640      11.26921104        0       0.00326943       0.00473883       0.00052245
O        4.78782384       9.54252167      12.23008024        3      -0.00031317      -0.00088265      -0.13197882
O        6.33331906       8.65659571       7.77445583        1       0.00139550       0.00301025       0.00024131
C       -0.36261598       0.20729955      15.85406157       10       0.00091200       0.00149010       0.02167123
C        0.84389858       0.90911809      15.83876952       10       0.00179537       0.00056660      -0.01298745
C       -1.57730816       2.30763681      15.85938227       10       0.00023443       0.00251944       0.00609475
C       -0.36565677       3.00716701      15.84167184       10       0.00164098       0.00330028       0.01933901
C       -2.78873151       4.41010942      15.85406157       10       0.00003001       0.00356443       0.02446171
C       -1.57771137       5.10412984      15.83876952       10       0.00010506       0.00288232      -0.01263070
C       -3.99567699       6.51097077      15.79095082       10       0.00176720       0.00163565       0.12274253
C       -2.78858823       7.19160451      15.74912860       10       0.00078637       0.00141074      -0.31797070
C       -5.20655263       8.60818752      15.79095082       10      -0.00168285       0.00100443       0.12800202
C       -4.01434109       9.31366863      15.74912860       10      -0.00107536       0.00095598      -0.27870011
C        2.06007986       0.20277933      15.79095082       10       0.00072400      -0.00034043       0.13046351
C        3.27133664       0.91073043      15.75887214       10       0.00113558       0.00003305       0.00917835
C        0.84664095       2.30791634      15.82772655       10       0.00115322       0.00047754       0.04690740
C        2.05831051       3.00657046      15.80581214       10       0.00098254       0.00022839       0.07540784
C       -0.36504690       4.40672850      15.82772655       10       0.00071737       0.00411045       0.04704044
C        0.84583258       5.10650928      15.80581214       10       0.00100723       0.00291741       0.07128973
C       -1.58157963       6.51085756      15.79095082       10       0.00010573       0.00128022       0.12365778
C       -0.36260848       7.20523838      15.75887214       10      -0.00108381       0.00148678       0.00542441
C       -2.78783466       8.60755417      15.29632294       10      -0.00106145       0.00117820       0.72934379
C       -1.56199987       9.31401780      15.74912860       10      -0.00056391       0.00133263      -0.25844981
C        4.48284380       0.20291945      15.79095082       10       0.00127353       0.00019045       0.13381271
C        5.69886462       0.90943594      15.83876952       10       0.00120364      -0.00064224      -0.01450885
C        3.27124357       2.30471688      15.79120585       10       0.00122462       0.00036120       0.00724760
C        4.48403882       3.00670011      15.80581214       10       0.00122064      -0.00042566       0.07466781
C        2.05928354       4.40706766      15.80313053       10       0.00064763       0.00065429       0.03195901
C        3.27115192       5.10670703      15.79812976       10       0.00110470       0.00087296       0.04626371
C        0.84448384       6.50799080      15.79120585       10      -0.00062213       0.00228086       0.00681234
C        2.05895529       7.20709236      15.80581214       10      -0.00181465       0.00340808       0.06883426
C       -0.37009039       8.60837546      15.79095082       10      -0.00115666       0.00073497       0.13193045
C        0.85017609       9.30800556      15.83876952       10      -0.00291746       0.00246298      -0.01636522
C        6.90541892       0.20759335      15.85406157       10       0.00064442       0.00047251       0.02016581
C        8.12121220       0.90969955      15.86100009       10       0.00198814      -0.00033124      -0.00255734
C        5.69587839       2.30817536      15.82772655       10      -0.00018214      -0.00116793       0.04645186
C        6.90824688       3.00735730      15.84167184       10      -0.00205896       0.00320388       0.01523103
C        4.48297659       4.40713204      15.80313053       10       0.00203313       0.00017196       0.03166211
C        5.69651164       5.10655699      15.80581214       10       0.00111748       0.00307412       0.06809731
C        3.27122105       6.50593027      15.80313053       10       0.00051850       0.00275787       0.03077514
C        4.48358808       7.20716387      15.80581214       10       0.00291928       0.00192752       0.06642013
C        2.05984185       8.60579174      15.82772655       10      -0.00309456       0.00256316       0.04592282
C        3.27144970       9.30634617      15.84167184       10       0.00000639      -0.00206816       0.00774741
C        9.33131185       0.20942516      15.85938227       10       0.00159598      -0.00331612       0.00103265
C       10.54144171       0.90952291      15.86100009       10       0.00189152       0.00017680      -0.00272103
C        8.11998329       2.30781532      15.85938227       10      -0.00152951       0.00162604       0.00461445
C        9.33135632       3.00582333      15.86100009       10      -0.00011516       0.00223891      -0.00321616
C        6.90747761       4.40693341      15.82772655       10       0.00028999       0.00379999       0.04698460
C        8.12023563       5.10417819      15.83876952       10       0.00137040       0.00199280      -0.01370382
C        5.69805751       6.50801372      15.79120585       10       0.00298846       0.00245304       0.00686007
C        6.90527573       7.20517994      15.75887214       10       0.00336911       0.00118191       0.00368591
C        4.48311500       8.60577593      15.82772655       10       0.00174187       0.00074139       0.04636698
C        5.69296896       9.30776943      15.83876952       10       0.00126386       0.00265351      -0.01589120
O       -2.78217608       8.62338276      13.84822680       11       0.00080077       0.00236916       0.00499146
