131
Lattice="12.12 0.0 0.0 -6.06 10.496227893867395 0.0 0.0 0.0 40.0" Properties=species:S:1:pos:R:3:tags:I:1:forces:R:3 stress="0.0028504791089058895 -5.298446694824381e-07 -1.7801695893724646e-07 -5.298446694824381e-07 0.0028497408746700394 6.927386838803332e-07 -1.7801695893724646e-07 6.927386838803332e-07 0.0018551936168135312" energy=-1203.6817105996074 pbc="T T F"
C        0.00020699      -0.00006726      10.00133434        2       0.00057947      -0.00025521       0.00225664
Ti       0.00054101       1.74931915       8.68867169        0      -0.00025232       0.00004700      -0.00480376
Ti       1.51595447       0.87578812      11.31048106        0       0.00011819       0.00010666       0.00435702
O       -0.00018518       1.74942581      12.23008024        3      -0.00001405       0.00008776       0.03500027
O        1.51567462       0.87337981       7.77094518        1       0.00009856       0.00002080       0.00100285
C       -1.51492730       2.62414858      10.00033754        2       0.00016526       0.00025492       0.00135473
Ti      -1.51502858       4.37412437       8.69003335        0      -0.00005593      -0.00017832      -0.00457756
Ti       0.00014772       3.49849374      11.31144660        0       0.00050636       0.00034804       0.00267881
O       -1.51504274       4.37267429      12.23008024        3       0.00000748       0.00000185       0.04888653
O       -0.00029709       3.49903965       7.76962141        1      -0.00030215       0.00003619       0.00013875
C       -3.03042534       5.24772741      10.00198049        2      -0.00007995       0.00046464       0.00287782
Ti      -3.03028895       6.99729207       8.69631517        0      -0.00026492       0.00014192      -0.00453899
Ti      -1.51473076       6.12356233      11.31763549        0      -0.00032599       0.00004811       0.00536204
O       -3.03107549       6.99639465      12.23008024        3       0.00047644       0.00118397       0.04513379
O       -1.51552975       6.12455790       7.77378257        1      -0.00009549       0.00021689       0.00173933
C       -4.54572278       7.87167542      10.00439861        2      -0.00006399      -0.00007742       0.00263226
Ti      -4.54481238       9.62148862       8.69460367        0      -0.00013166       0.00010705      -0.00480226
Ti      -3.02828024       8.74608525      11.33733384        0      -0.00016347       0.00010979       0.00256906
O       -4.54323733       9.62047647      12.23008024        3       0.00155099      -0.00078838       0.07537898
O       -3.02919931       8.74654167       7.77777196        1      -0.00000223       0.00005633       0.00086725
C        3.03007295       0.00087999      10.00466726        2       0.00008138       0.00023068       0.00264344
Ti       3.03000532       1.74798265       8.69158493        0       0.00004786       0.00093973      -0.00458152
Ti       4.54414265       0.87827914      11.31145451        0       0.00019044      -0.00016630       0.00499235
O        3.02969449       1.75292309      12.23008024        3       0.00032441      -0.00003001       0.05903097
O        4.54458492       0.87304223       7.77159861        1       0.00002873      -0.00005068       0.00124179
C        1.51450133       2.62424155      10.00049659        2       0.00027477      -0.00008184       0.00196161
Ti       1.51485193       4.37374516       8.68872562        0      -0.00006429      -0.00012750      -0.00450398
Ti       3.02965619       3.49978582      11.31220701        0       0.00017364       0.00023024       0.00214608
O        1.51475048       4.37376165      12.23008024        3       0.00027462       0.00029886       0.06261568
O        3.02977174       3.49769542       7.76995590        1      -0.00015453       0.00047676      -0.00030220
C       -0.00002419       5.24783614      10.00178154        2      -0.00021173       0.00041219       0.00250446
Ti      -0.00051582       6.99781132       8.69456881        0       0.00054818      -0.00025105      -0.00419513
Ti       1.51593391       6.12235298      11.31092178        0       0.00034326      -0.00008358       0.00343919
O        0.00123239       6.99691741      12.23008024        3      -0.00059163       0.00050659       0.07654580
O        1.51350971       6.12368345       7.77038463        1      -0.00002142       0.00004640       0.00060930
C       -1.51503116       7.87230929      10.00766183        2       0.00003967       0.00007319       0.00281570
Ti      -1.51487313       9.62192589       8.69648880        0      -0.00022604       0.00022911      -0.00456901
Ti      -0.00039100       8.74634034      11.31899130        0      -0.00032610       0.00033635       0.00528559
O       -1.51416089       9.62331026      12.23008024        3      -0.00058915      -0.00075965       0.03252240
O       -0.00172570       8.74656027       7.77405230        1      -0.00017478       0.00008577       0.00175463
C        6.06024072       0.00059381      10.00225095        2      -0.00041569      -0.00004000       0.00293919
Ti       6.05967283       1.74871864       8.68953341        0       0.00031476       0.00031422      -0.00460853
Ti       7.57482750       0.87509104      11.31119792        0      -0.00019919       0.00031972       0.00307180
O        6.06068189       1.75002182      12.23008024        3      -0.00016665       0.00020807       0.06002085
O        7.57453266       0.87419787       7.76989989        1       0.00010048      -0.00005960       0.00022266
C        4.54530535       2.62459709      10.00094353        2      -0.00005830      -0.00003592       0.00185338
Ti       4.54493466       4.37346918       8.68778664        0       0.00007227       0.00000949      -0.00450328
Ti       6.06015428       3.49881450      11.31169889        0      -0.00078603       0.00053263       0.00227223
O        4.54502263       4.37356125      12.23008024        3      -0.00029403       0.00022691       0.06140375
O        6.06022233       3.49849127       7.76948991        1       0.00026951      -0.00005638      -0.00026037
C        3.03004340       5.24810050       9.99974638        2      -0.00016385       0.00016593       0.00162694
Ti       3.02961431       6.99753842       8.68880977        0       0.00016750       0.00013187      -0.00447557
Ti       4.54415764       6.12268993      11.31215226        0      -0.00003038      -0.00008818       0.00209178
O        3.02981137       6.99756772      12.23008024        3      -0.00006356      -0.00024975       0.06538921
O        4.54572124       6.12350574       7.76987329        1      -0.00040889      -0.00004987      -0.00031654
C        1.51537861       7.87231964      10.00187201        2      -0.00039922       0.00009234       0.00247992
Ti       1.51440356       9.62126798       8.69045716        0       0.00024489       0.00017157      -0.00460785
Ti       3.03049349       8.74679709      11.31132096        0      -0.00007144      -0.00044209       0.00280710
O        1.51597527       9.62199304      12.23008024        3       0.00000633       0.00007622       0.04804212
O        3.02954205       8.74702545       7.76963510        1      -0.00008577       0.00031590       0.00019385
C        9.09011740      -0.00006569      10.00032619        2      -0.00013815      -0.00020411       0.00144647
Ti       9.08989326       1.74940616       8.68900945        0       0.00018948      -0.00001952      -0.00542184
Ti      10.60552795       0.87437937      11.31259685        0       0.00013081      -0.00005961       0.00224514
O        9.09017235       1.74932042      12.23008024        3       0.00004204       0.00004023       0.03604282
O       10.60534111       0.87451669       7.76956579        1       0.00000202       0.00006147      -0.00019183
C        7.57519200       2.62398070      10.00014934        2      -0.00029616       0.00019026       0.00153477
Ti       7.57527405       4.37403693       8.68910262        0       0.00001947      -0.00031413      -0.00451772
Ti       9.08957181       3.49879313      11.31140556        0      -0.00033401       0.00010269       0.00281731
O        7.57485578       4.37266954      12.23008024        3      -0.00021995       0.00008429       0.05770302
O        9.09018750       3.49932664       7.76974932        1       0.00015375       0.00001412       0.00012562
C        6.05970149       5.24757104      10.00061970        2       0.00003296       0.00018536       0.00190575
Ti       6.06125305       6.99821507       8.69130904        0      -0.00073162      -0.00042557      -0.00451479
Ti       7.57187645       6.12179988      11.31059643        0       0.00021021      -0.00001449       0.00490132
O        6.05714064       6.99609707      12.23008024        3       0.00020380      -0.00006210       0.06367140
O        7.57626473       6.12399979       7.77116993        1       0.00007623       0.00007477       0.00124784
C        4.54471602       7.87253957      10.00042370        2       0.00022411      -0.00010650       0.00195228
Ti       4.54527175       9.62112889       8.68848302        0      -0.00005630       0.00028577      -0.00471102
Ti       6.05967547       8.74542242      11.31064656        0       0.00002379      -0.00002160       0.00418802
O        4.54498890       9.62162400      12.23008024        3      -0.00005877       0.00000399       0.03937701
O        6.06149772       8.74707233       7.77081624        1       0.00005705      -0.00000701       0.00093832
C        0.04097747       0.07012104      18.06944619       10      -0.00113098      -0.00051211       0.01092368
C        1.24989408       0.77054430      18.05415414       10      -0.00200813      -0.00113693       0.00597993
C       -1.16920219       2.16790812      18.07476689       10       0.00267383      -0.00304637       0.00162881
C        0.04243523       2.86735885      18.05705646       10       0.00147603      -0.00341396      -0.00335657
C       -2.38055352       4.26469165      18.06944619       10       0.00023148      -0.00364012       0.00412830
C       -1.16944304       4.96121342      18.05415414       10      -0.00030889      -0.00255766      -0.00744728
C       -3.58584421       6.36727653      18.00633544       10      -0.00220647      -0.00193446       0.01604575
C       -2.38046591       7.04863169      17.96451322       10      -0.00293769      -0.00040662      -0.05682376
C       -4.80087158       8.47108038      18.00633544       10       0.00346405       0.00024111       0.02029884
C       -3.60777515       9.17400917      17.96451322       10       0.00293688      -0.00000189      -0.05218273
C        2.46474818       0.06248235      18.00633544       10      -0.00219509       0.00071926       0.02456319
C        3.67935893       0.76742847      17.97425676       10      -0.00325577       0.00037287      -0.06104324
C        1.25474102       2.16855728      18.04311117       10       0.00110802      -0.00211213      -0.00093744
C        2.46619344       2.86635994      18.02119676       10       0.00060326      -0.00155959      -0.00938300
C        0.04371815       4.26658769      18.04311117       10       0.00012348      -0.00331628       0.00093065
C        1.25396261       4.96648352      18.02119676       10      -0.00136857      -0.00041535      -0.02592142
C       -1.17479935       6.36709553      18.00633544       10      -0.00321650      -0.00053690       0.03063620
C        0.04284224       7.06645916      17.97425676       10      -0.00319196       0.00129431      -0.07866808
C       -2.38051507       8.46530700      17.51170756       10       0.00052435       0.00041450      -0.39285710
C       -1.15372798       9.17406917      17.96451322       10      -0.00009770      -0.00016230      -0.06071848
C        4.89399398       0.06247224      18.00633544       10      -0.00273476       0.00160647       0.01878133
C        6.10873985       0.77045065      18.05415414       10      -0.00061456      -0.00039729      -0.00055935
C        3.67920807       2.16374807      18.00659047       10       0.00041706      -0.00051486      -0.02582121
C        4.89235365       2.86632336      18.02119676       10       0.00166669      -0.00098508      -0.00406969
C        2.46762840       4.26715775      18.01851515       10      -0.00150733      -0.00120988      -0.01988919
C        3.67970699       4.96682742      18.01351438       10      -0.00204113       0.00011556      -0.02401249
C        1.25221287       6.36825369      18.00659047       10      -0.00303392       0.00168123      -0.00738387
C        2.46708718       7.06759077      18.02119676       10      -0.00111205       0.00136199      -0.02737712
C        0.03936085       8.47069592      18.00633544       10       0.00141575       0.00210406       0.03232795
C        1.25959039       9.16895115      18.05415414       10       0.00472012       0.00057455      -0.01027019
C        7.31745122       0.06980640      18.06944619       10       0.00190566       0.00231015       0.00641829
C        8.52947620       0.76960016      18.07638471       10       0.00129251       0.00205478       0.00192169
C        6.10364272       2.16839054      18.04311117       10       0.00275585      -0.00050360      -0.02003286
C        7.31600502       2.86714961      18.05705646       10       0.00226151      -0.00003471       0.00118113
C        4.89154546       4.26712748      18.01851515       10      -0.00186155       0.00033107      -0.03261338
C        6.10535633       4.96650605      18.02119676       10      -0.00288894       0.00207811      -0.00397496
C        3.67968855       6.36630103      18.01851515       10      -0.00242458       0.00053359      -0.02138164
C        4.89222516       7.06773030      18.02119676       10      -0.00213650       0.00091248      -0.01134518
C        2.46779584       8.46562541      18.04311117       10       0.00519445       0.00140827       0.00111049
C        3.67903721       9.16621074      18.05705646       10       0.00498003       0.00074718      -0.00645777
C        9.73919993       0.06895634      18.07476689       10       0.00052374       0.00159295       0.00199828
C       10.94889661       0.76985464      18.07638471       10      -0.00004577      -0.00080619       0.00356247
C        8.52747846       2.16762842      18.07476689       10       0.00260928       0.00059475      -0.00816568
C        9.73912967       2.86513069      18.07638471       10       0.00211680      -0.00185348       0.00350081
C        7.31538902       4.26643410      18.04311117       10      -0.00286019       0.00032222      -0.02169758
C        8.52846524       4.96126887      18.05415414       10      -0.00196120      -0.00143222       0.00237905
C        6.10720307       6.36842418      18.00659047       10      -0.00277090       0.00218326      -0.02854066
C        7.31633359       7.06672186      17.97425676       10      -0.00206464       0.00092815      -0.05834982
C        4.89042074       8.46578859      18.04311117       10       0.00359951       0.00070297      -0.00292028
C        6.09855637       9.16920820      18.05415414       10       0.00389588      -0.00053241       0.00595351
O       -2.37783491       8.46241208      16.17625491       11       0.00019815       0.00023728      -0.00192156
