131
Lattice="12.12 0.0 0.0 -6.06 10.496227893867395 0.0 0.0 0.0 40.0" Properties=species:S:1:pos:R:3:tags:I:1:forces:R:3 stress="0.0028429930216887977 -5.227397167025965e-07 -4.2748404415165205e-06 -5.227397167025965e-07 0.002842696005022073 2.4041233291690443e-06 -4.2748404415165205e-06 2.4041233291690443e-06 0.001995678135863743" energy=-1204.0476257517305 pbc="T T F"
C       -0.00053785       0.00027055      10.00155246        2       0.00010402      -0.00009232       0.00211111
Ti       0.00051343       1.74938361       8.68928186        0      -0.00072400       0.00018801      -0.00483379
Ti       1.51489692       0.87546985      11.31080562        0      -0.00031935       0.00053419       0.00464774
O       -0.00074394       1.74953501      12.23008024        3      -0.00036543       0.00028362       0.17237510
O        1.51588067       0.87314565       7.77182370        1      -0.00043651       0.00018156       0.00108630
C       -1.51518548       2.62427850      10.00094202        2      -0.00030514       0.00046593       0.00142333
Ti      -1.51514529       4.37421265       8.69207201        0      -0.00036022      -0.00001306      -0.00477491
Ti      -0.00015029       3.49895188      11.31132906        0      -0.00004052       0.00064928       0.00294913
O       -1.51487546       4.37307338      12.23008024        3      -0.00051365       0.00014310       0.11870618
O       -0.00066650       3.49931955       7.77023899        1      -0.00064157       0.00022709       0.00041317
C       -3.03069885       5.24783488      10.00349167        2      -0.00055638       0.00074269       0.00292792
Ti      -3.03033926       6.99705945       8.69775324        0      -0.00076213       0.00033436      -0.00450099
Ti      -1.51656732       6.12547488      11.32157210        0      -0.00085530       0.00036735       0.00558268
O       -3.03294360       6.99588923      12.23008024        3      -0.00010897       0.00090315       0.03768005
O       -1.51561494       6.12504544       7.77601264        1      -0.00058563       0.00040131       0.00199692
C       -4.54600834       7.87204853      10.00623433        2      -0.00030876       0.00026579       0.00285541
Ti      -4.54495385       9.62159855       8.69568649        0      -0.00073429       0.00032599      -0.00467788
Ti      -3.03031399       8.74689515      11.33506880        0      -0.00078453       0.00045471       0.00425217
O       -4.54484313       9.62136096      12.23008024        3       0.00104448      -0.00049188       0.14204298
O       -3.02898455       8.74638267       7.77908380        1      -0.00044349       0.00024520       0.00149549
C        3.02962610       0.00070478      10.00652582        2      -0.00037370       0.00015151       0.00291351
Ti       3.02980618       1.74851414       8.69312955        0      -0.00039272       0.00082960      -0.00479890
Ti       4.54305048       0.87784570      11.31499430        0      -0.00047038       0.00000818       0.00495208
O        3.02847992       1.75306783      12.23008024        3      -0.00034528       0.00016838       0.12526068
O        4.54446524       0.87265395       7.77348788        1      -0.00036164       0.00009734       0.00133068
C        1.51434888       2.62410280      10.00089331        2      -0.00003301       0.00006360       0.00206815
Ti       1.51450069       4.37371082       8.68954751        0      -0.00032784      -0.00008557      -0.00440665
Ti       3.02950732       3.50005279      11.31199937        0      -0.00035531       0.00040688       0.00232615
O        1.51438313       4.37345168      12.23008024        3      -0.00039320       0.00047568       0.12539708
O        3.02968586       3.49772590       7.77054647        1      -0.00051626       0.00039593      -0.00008163
C        0.00024558       5.24791018      10.00285025        2      -0.00066225       0.00080227       0.00261184
Ti       0.00018525       6.99742147       8.69696456        0       0.00003775      -0.00006026      -0.00444029
Ti       1.51577050       6.12226548      11.31047017        0      -0.00008935       0.00016731       0.00379038
O        0.00015354       6.99764831      12.23008024        3      -0.00166826       0.00106620       0.14088306
O        1.51322161       6.12382269       7.77097119        1      -0.00060843       0.00032964       0.00107213
C       -1.51566944       7.87257802      10.01085272        2      -0.00081814       0.00054127       0.00331709
Ti      -1.51479624       9.62200088       8.69800554        0      -0.00066265       0.00041093      -0.00453771
Ti      -0.00276565       8.74702532      11.32233966        0      -0.00089054       0.00053553       0.00572658
O       -1.51494485       9.62482164      12.23008024        3      -0.00078673      -0.00009917       0.03567778
O       -0.00221945       8.74639701       7.77623499        1      -0.00063710       0.00029351       0.00206262
C        6.05991309       0.00066534      10.00399892        2      -0.00090802       0.00011612       0.00295765
Ti       6.05959881       1.74878351       8.69125429        0      -0.00014326       0.00042153      -0.00467372
Ti       7.57446267       0.87497186      11.31106532        0      -0.00077041       0.00069211       0.00359631
O        6.06018024       1.75076679      12.23008024        3      -0.00089089       0.00046268       0.12477617
O        7.57411076       0.87404670       7.77085157        1      -0.00031216       0.00006284       0.00060416
C        4.54482443       2.62461487      10.00198165        2      -0.00063965       0.00005816       0.00190697
Ti       4.54499705       4.37331999       8.68879136        0      -0.00037612       0.00027313      -0.00456558
Ti       6.05976873       3.49899234      11.31120387        0      -0.00149239       0.00080483       0.00283148
O        4.54508440       4.37334643      12.23008024        3      -0.00064786       0.00036393       0.12085011
O        6.06030180       3.49842416       7.77046468        1      -0.00014781       0.00006929       0.00002250
C        3.02984480       5.24812440      10.00070744        2      -0.00062653       0.00035083       0.00166943
Ti       3.02946935       6.99783330       8.68964658        0      -0.00006695       0.00025092      -0.00440659
Ti       4.54343580       6.12248605      11.31198670        0      -0.00036228       0.00018586       0.00218545
O        3.02948492       6.99788618      12.23008024        3      -0.00049672       0.00010589       0.12461483
O        4.54559445       6.12347393       7.77048553        1      -0.00060615       0.00024917      -0.00017846
C        1.51538396       7.87201187      10.00288986        2      -0.00099292       0.00014504       0.00266204
Ti       1.51419792       9.62130568       8.69245188        0      -0.00011609       0.00028133      -0.00469426
Ti       3.02985735       8.74680585      11.31127069        0      -0.00061968      -0.00029596       0.00305543
O        1.51566086       9.62156452      12.23008024        3      -0.00056521       0.00022021       0.11736503
O        3.02903952       8.74719746       7.77029405        1      -0.00047626       0.00044385       0.00045804
C        9.08984565       0.00012050      10.00097330        2      -0.00063946       0.00001946       0.00154829
Ti       9.08973317       1.74945293       8.68905424        0      -0.00017450       0.00014292      -0.00529831
Ti      10.60496140       0.87469020      11.31263046        0      -0.00019655       0.00001873       0.00231461
O        9.08988221       1.74955457      12.23008024        3      -0.00038765       0.00019073       0.12394136
O       10.60509633       0.87462551       7.76982028        1      -0.00046588       0.00030278      -0.00002670
C        7.57500424       2.62403679      10.00106125        2      -0.00074698       0.00033670       0.00184288
Ti       7.57528267       4.37408967       8.69064672        0      -0.00042174      -0.00016057      -0.00461308
Ti       9.08944682       3.49921296      11.31123946        0      -0.00103479       0.00033451       0.00334436
O        7.57416693       4.37280889      12.23008024        3      -0.00084505       0.00048060       0.12895928
O        9.09012113       3.49967844       7.77063642        1      -0.00022324       0.00022707       0.00048144
C        6.05948198       5.24799053      10.00164878        2      -0.00036569       0.00048903       0.00193351
Ti       6.06064952       6.99812878       8.69261264        0      -0.00090435      -0.00009671      -0.00464631
Ti       7.57099450       6.12255125      11.31307339        0      -0.00027763       0.00033905       0.00497594
O        6.05576074       6.99647165      12.23008024        3      -0.00043121       0.00020628       0.11414788
O        7.57646534       6.12429968       7.77281995        1      -0.00028841       0.00017096       0.00134876
C        4.54460524       7.87269261      10.00083031        2      -0.00007505       0.00004440       0.00210101
Ti       4.54518073       9.62109395       8.68919911        0      -0.00052996       0.00057319      -0.00475922
Ti       6.05929999       8.74615352      11.31111082        0      -0.00063053       0.00007290       0.00432336
O        4.54457940       9.62211365      12.23008024        3      -0.00047375       0.00014961       0.15600162
O        6.06176965       8.74702125       7.77166914        1      -0.00047886       0.00023888       0.00105296
C        0.04161238       0.06985835      17.82329234       10      -0.00042442      -0.00080442      -0.02692525
C        1.25036208       0.77022030      17.80800029       10      -0.00117778      -0.00156238      -0.03598156
C       -1.16863242       2.16752936      17.82861304       10       0.00346075      -0.00346403      -0.03215097
C        0.04291789       2.86691845      17.81090261       10       0.00220768      -0.00383606      -0.02895417
C       -2.38009416       4.26441959      17.82329234       10       0.00101625      -0.00403649      -0.01414336
C       -1.16899235       4.96081402      17.80800029       10       0.00042448      -0.00288797      -0.01559136
C       -3.58546921       6.36689486      17.76018159       10      -0.00148470      -0.00226516       0.01677002
C       -2.37993042       7.04802949      17.71835937       10      -0.00221676      -0.00072875      -0.06966766
C       -4.80030822       8.47082812      17.76018159       10       0.00414351      -0.00000401      -0.00483674
C       -3.60696145       9.17366839      17.71835937       10       0.00367877      -0.00032200      -0.09180397
C        2.46530992       0.06228107      17.76018159       10      -0.00144406       0.00036187      -0.01359490
C        3.67988127       0.76727438      17.72810291       10      -0.00255831      -0.00001457      -0.08534659
C        1.25510827       2.16812657      17.79695732       10       0.00181335      -0.00257614      -0.04060484
C        2.46658234       2.86609311      17.77504291       10       0.00129946      -0.00190985      -0.04871182
C        0.04413075       4.26627013      17.79695732       10       0.00083778      -0.00370732      -0.04716290
C        1.25437196       4.96625617      17.77504291       10      -0.00063595      -0.00072702      -0.02370735
C       -1.17411144       6.36665817      17.76018159       10      -0.00255420      -0.00087221      -0.00289859
C        0.04341895       7.06620559      17.72810291       10      -0.00249627       0.00100470      -0.06305703
C       -2.37923996       8.46476710      17.26555371       10       0.00119132       0.00005389      -0.30790432
C       -1.15276926       9.17408840      17.71835937       10       0.00066799      -0.00054196      -0.07186281
C        4.89462405       0.06251125      17.76018159       10      -0.00198636       0.00127108       0.00965430
C        6.10931457       0.77051991      17.80800029       10       0.00016576      -0.00077591      -0.01730553
C        3.67958931       2.16353999      17.76043662       10       0.00115778      -0.00085830      -0.02527012
C        4.89274405       2.86624767      17.77504291       10       0.00243200      -0.00127757      -0.05235204
C        2.46795276       4.26693040      17.77236130       10      -0.00075195      -0.00153382      -0.03303296
C        3.68010499       4.96667099      17.76736053       10      -0.00128624      -0.00016242      -0.03852765
C        1.25264107       6.36807953      17.76043662       10      -0.00228468       0.00139577      -0.05122717
C        2.46752535       7.06743151      17.77504291       10      -0.00034903       0.00113648      -0.02295101
C        0.04021394       8.47043373      17.76018159       10       0.00218598       0.00179678      -0.01060546
C        1.26024252       9.16885466      17.80800029       10       0.00547525       0.00023473      -0.01440225
C        7.31800202       0.06964529      17.82329234       10       0.00278838       0.00206766      -0.01501610
C        8.53008707       0.76954148      17.83023086       10       0.00222225       0.00175778      -0.02953616
C        6.10406749       2.16829910      17.79695732       10       0.00354709      -0.00088263      -0.02003979
C        7.31633010       2.86708741      17.81090261       10       0.00310886      -0.00037184      -0.03708340
C        4.89191796       4.26698980      17.77236130       10      -0.00110601       0.00004325      -0.02462679
C        6.10569461       4.96633738      17.77504291       10      -0.00212626       0.00179139      -0.05381282
C        3.68008824       6.36622489      17.77236130       10      -0.00166716       0.00026320      -0.02935450
C        4.89270752       7.06759191      17.77504291       10      -0.00135389       0.00067765      -0.04319084
C        2.46830585       8.46551129      17.79695732       10       0.00602046       0.00119763      -0.04573024
C        3.67969442       9.16609603      17.81090261       10       0.00581998       0.00046939      -0.02657689
C        9.73985928       0.06877938      17.82861304       10       0.00136517       0.00130086      -0.03558715
C       10.94954699       0.76958937      17.83023086       10       0.00083926      -0.00112368      -0.03320718
C        8.52797902       2.16742711      17.82861304       10       0.00347180       0.00022819      -0.02469435
C        9.73957239       2.86478230      17.83023086       10       0.00293533      -0.00223744      -0.03494765
C        7.31575636       4.26625806      17.79695732       10      -0.00209783      -0.00001944      -0.01971344
C        8.52875186       4.96088461      17.80800029       10      -0.00119882      -0.00179935      -0.01928484
C        6.10763925       6.36829321      17.76043662       10      -0.00203387       0.00191286      -0.02395221
C        7.31679910       7.06646156      17.72810291       10      -0.00131429       0.00069038      -0.08881578
C        4.89101471       8.46577378      17.79695732       10       0.00440138       0.00045902      -0.03754334
C        6.09915767       9.16908160      17.80800029       10       0.00477285      -0.00077353      -0.03664405
O       -2.37240307       8.46068282      15.93327966       11      -0.00000105       0.00000460      -0.00137986
