131
Lattice="12.12 0.0 0.0 -6.06 10.496227893867395 0.0 0.0 0.0 40.0" Properties=species:S:1:pos:R:3:tags:I:1:forces:R:3 stress="0.002858542407680039 -6.958792847468509e-07 2.3403057272573167e-06 -6.958792847468509e-07 0.0028582085195253274 -2.172801619390991e-06 2.3403057272573167e-06 -2.172801619390991e-06 0.0021679053097132415" energy=-1205.3181252157224 pbc="T T F"
C       -0.00129251       0.00051584      10.00405023        2       0.00069905      -0.00055825       0.00222854
Ti       0.00044188       1.74875978       8.69213127        0       0.00002917       0.00015401      -0.00479614
Ti       1.51813650       0.87483200      11.31101721        0       0.00013364       0.00015780       0.00380102
O        0.00051956       1.74916627      12.23008024        3       0.00042891      -0.00037131       0.07566833
O        1.51648335       0.87159233       7.77532417        1       0.00009001      -0.00066880       0.00110307
C       -1.51476504       2.62378924      10.00262133        2       0.00047175      -0.00016476       0.00102185
Ti      -1.51469445       4.37428521       8.69399353        0       0.00011912      -0.00084065      -0.00422852
Ti       0.00053834       3.49966150      11.30555482        0       0.00153899       0.00059792       0.00188607
O       -1.51482076       4.37518506      12.23008024        3       0.00021568       0.00007432       0.07308544
O       -0.00104130       3.49824212       7.76998835        1       0.00015160      -0.00002974       0.00076437
C       -3.03012997       5.24637163      10.00454555        2       0.00028440       0.00038003       0.00265633
Ti      -3.03177094       6.99577491       8.70072346        0       0.00048688      -0.00049371      -0.00376096
Ti      -1.51448733       6.12826646      11.31925844        0       0.00026455      -0.00083291       0.00483291
O       -3.03414138       6.98775763      12.23008024        3       0.00080300      -0.00099018      -0.02832220
O       -1.51595027       6.12660232       7.77859605        1      -0.00006141      -0.00056254       0.00180630
C       -4.54526083       7.87107471      10.01185032        2       0.00127341      -0.00011758       0.00400295
Ti      -4.54522917       9.62140117       8.70065290        0       0.00005051      -0.00005449      -0.00438987
Ti      -3.02596629       8.74470712      11.34036898        0       0.00040584      -0.00021567       0.00578834
O       -4.54917122       9.62330650      12.23008024        3      -0.00004496      -0.00013867       0.05024873
O       -3.02855827       8.74608327       7.78312350        1       0.00007668      -0.00016564       0.00303136
C        3.03072345       0.00055666      10.01266400        2       0.00076669      -0.00116747       0.00392492
Ti       3.02987975       1.74957678       8.69616992        0       0.00037922       0.00002654      -0.00443087
Ti       4.54556009       0.87734197      11.30955012        0       0.00050597      -0.00037421       0.00546841
O        3.03277950       1.75388989      12.23008024        3       0.00100914      -0.00072863       0.10597162
O        4.54370111       0.87143333       7.77510189        1       0.00044015      -0.00112775       0.00165696
C        1.51510148       2.62456794      10.00246056        2       0.00077797      -0.00017677       0.00197636
Ti       1.51419941       4.37266270       8.69081796        0       0.00097970      -0.00003358      -0.00391377
Ti       3.03058557       3.50029016      11.30354027        0       0.00088007      -0.00006613       0.00095932
O        1.51685897       4.37396970      12.23008024        3       0.00116251       0.00021682       0.06151924
O        3.02945969       3.49634082       7.76912257        1       0.00021316      -0.00064107       0.00006290
C        0.00204125       5.24666448      10.00220987        2       0.00022491      -0.00000208       0.00239923
Ti       0.00301335       6.99567114       8.69870937        0       0.00016706      -0.00017150      -0.00449617
Ti       1.51805049       6.12129555      11.30363277        0       0.00022479      -0.00023856       0.00306876
O        0.00714699       6.99385922      12.23008024        3      -0.00037251       0.00025246       0.03045678
O        1.51280746       6.12390460       7.76995574        1      -0.00054849       0.00024456       0.00106565
C       -1.51514127       7.87213041      10.02187043        2      -0.00030335       0.00005088       0.00415893
Ti      -1.51436640       9.62369966       8.70081342        0       0.00055526      -0.00034112      -0.00383486
Ti      -0.00446220       8.74409599      11.31935444        0       0.00087144       0.00007300       0.00500386
O       -1.50873726       9.62890340      12.23008024        3       0.00137441      -0.00053427      -0.03647921
O       -0.00391268       8.74569871       7.77853064        1       0.00029631       0.00018948       0.00165952
C        6.06120480       0.00079069      10.00469735        2      -0.00027038      -0.00048015       0.00263398
Ti       6.06051889       1.74928903       8.69274697        0       0.00023415       0.00002146      -0.00468222
Ti       7.57461972       0.87323064      11.30527279        0      -0.00000369       0.00022518       0.00244008
O        6.06224742       1.75244709      12.23008024        3       0.00010109       0.00037604       0.05586497
O        7.57461507       0.87330119       7.77023869        1       0.00009465      -0.00024434       0.00066331
C        4.54545929       2.62572453      10.00089675        2       0.00005685      -0.00062425       0.00111585
Ti       4.54532323       4.37334192       8.68748361        0       0.00039660      -0.00033161      -0.00348132
Ti       6.05950611       3.49852741      11.30421201        0      -0.00057432       0.00032155       0.00108421
O        4.54616696       4.37324525      12.23008024        3       0.00049968      -0.00024664       0.04524823
O        6.06100266       3.49808172       7.76880853        1       0.00079474      -0.00056302      -0.00019353
C        3.03085462       5.24773520      10.00004885        2       0.00021794      -0.00020521       0.00082224
Ti       3.03027784       6.99851051       8.69049992        0       0.00051206      -0.00085670      -0.00386055
Ti       4.54394699       6.12164585      11.30332717        0       0.00034960      -0.00086871       0.00084039
O        3.03116873       6.99643048      12.23008024        3       0.00035254      -0.00103182       0.05678689
O        4.54681179       6.12435295       7.76898101        1       0.00058439      -0.00005640      -0.00006058
C        1.51736500       7.87093587      10.00180076        2       0.00006883      -0.00035750       0.00216633
Ti       1.51447448       9.62078904       8.69389372        0       0.00058724       0.00015438      -0.00432435
Ti       3.02904930       8.74589944      11.30524425        0       0.00030983      -0.00173859       0.00186379
O        1.51349163       9.61968813      12.23008024        3      -0.00011281      -0.00061887       0.06597566
O        3.02982511       8.74800758       7.76970106        1      -0.00004037      -0.00014441       0.00064126
C        9.09020691      -0.00008800      10.00207780        2       0.00032700      -0.00048154       0.00105181
Ti       9.08967944       1.74948036       8.68937110        0       0.00055159      -0.00042725      -0.00476395
Ti      10.60539208       0.87419460      11.30601994        0       0.00058569      -0.00048802       0.00167582
O        9.08768599       1.75007833      12.23008024        3      -0.00041694      -0.00005421       0.07740951
O       10.60576110       0.87442536       7.76984237        1       0.00045404      -0.00038537       0.00028662
C        7.57558376       2.62358933      10.00003175        2      -0.00001391      -0.00011918       0.00167149
Ti       7.57547379       4.37298533       8.69276083        0       0.00000868      -0.00040844      -0.00467334
Ti       9.09090051       3.49939931      11.30547074        0      -0.00029836      -0.00022760       0.00235980
O        7.57289913       4.36969827      12.23008024        3      -0.00041137      -0.00028199       0.04713768
O        9.09116484       3.49963190       7.77024683        1       0.00015911      -0.00013446       0.00068030
C        6.05894184       5.24693180      10.00080361        2       0.00042696       0.00014906       0.00109077
Ti       6.06010565       6.99763887       8.69593849        0       0.00004597      -0.00047980      -0.00441736
Ti       7.57223322       6.12035474      11.30900469        0       0.00041168      -0.00036520       0.00532692
O        6.05719792       6.99288561      12.23008024        3       0.00093519      -0.00074314       0.10128264
O        7.57731091       6.12532985       7.77471259        1       0.00114467       0.00004434       0.00164661
C        4.54468748       7.87187190      10.00197169        2       0.00054563      -0.00071037       0.00190388
Ti       4.54574122       9.62151553       8.69177153        0      -0.00021134      -0.00029788      -0.00473526
Ti       6.06039541       8.74414519      11.31015632        0      -0.00005915      -0.00041991       0.00391099
O        4.54419673       9.62033360      12.23008024        3       0.00026492      -0.00045621       0.08526919
O        6.06341712       8.74726312       7.77474182        1       0.00066922       0.00015377       0.00113458
C        0.04069664       0.07031454      17.08483080       10      -0.00215011      -0.00029641       0.02995204
C        1.24920101       0.77065163      17.06953875       10      -0.00112167      -0.00018258       0.00804584
C       -1.16958200       2.16796805      17.09015150       10       0.00167442      -0.00201325      -0.00069458
C        0.04227020       2.86760402      17.07244107       10       0.00088882      -0.00255534      -0.00158491
C       -2.38107198       4.26542009      17.08483080       10      -0.00052206      -0.00254147      -0.00120014
C       -1.16992552       4.96199359      17.06953875       10      -0.00062701      -0.00148815      -0.00777355
C       -3.58660329       6.36813172      17.02172005       10      -0.00248148      -0.00107344       0.03500613
C       -2.38072407       7.05016728      16.97989783       10      -0.00290199       0.00049886      -0.13978403
C       -4.80156938       8.47099634      17.02172005       10       0.00108826       0.00075210       0.03489833
C       -3.60846135       9.17445622      16.97989783       10       0.00251357       0.00145633      -0.14746507
C        2.46446220       0.06326379      17.02172005       10      -0.00228720       0.00094080       0.03528771
C        3.67908809       0.76788653      16.98964137       10      -0.00338591       0.00062535      -0.03251233
C        1.25445132       2.16843398      17.05849578       10       0.00041214      -0.00162992       0.00347957
C        2.46607208       2.86656018      17.03658137       10      -0.00002143      -0.00081852      -0.00576189
C        0.04313474       4.26718669      17.05849578       10      -0.00048920      -0.00241651      -0.00530680
C        1.25346067       4.96711258      17.03658137       10      -0.00167624      -0.00005374      -0.01162780
C       -1.17521724       6.36810936      17.02172005       10      -0.00345758       0.00011920       0.02565172
C        0.04248093       7.06665489      16.98964137       10      -0.00327116       0.00161646      -0.06718562
C       -2.38144092       8.46632115      16.52709217       10      -0.00067646       0.00102551      -0.14902764
C       -1.15457992       9.17385566      16.97989783       10      -0.00103155       0.00037383      -0.13281149
C        4.89321674       0.06296350      17.02172005       10      -0.00281961       0.00154708       0.04291026
C        6.10830792       0.77040034      17.06953875       10      -0.00107499       0.00017518      -0.02183606
C        3.67906376       2.16424159      17.02197508       10      -0.00008573       0.00001026      -0.02788117
C        4.89220356       2.86652479      17.03658137       10       0.00072027       0.00011767      -0.01642712
C        2.46738441       4.26742882      17.03389976       10      -0.00186535      -0.00056541      -0.00898910
C        3.67938818       4.96714691      17.02889899       10      -0.00258778       0.00053254      -0.03044868
C        1.25175795       6.36867445      17.02197508       10      -0.00297954       0.00173311      -0.02457059
C        2.46633137       7.06791580      17.03658137       10      -0.00144623       0.00167462      -0.01836235
C        0.03865387       8.47062681      17.02172005       10       0.00044340       0.00228483       0.03241830
C        1.25886921       9.16909672      17.06953875       10       0.00323444       0.00119613      -0.01673876
C        7.31667479       0.07003346      17.08483080       10       0.00167123       0.00268761      -0.00469363
C        8.52900127       0.76987505      17.09176932       10       0.00131447       0.00266132       0.00288595
C        6.10333869       2.16857877      17.05849578       10       0.00164367       0.00010749      -0.03269589
C        7.31539123       2.86768444      17.07244107       10       0.00133449       0.00074779      -0.00605143
C        4.89137983       4.26727718      17.03389976       10      -0.00248421       0.00116240      -0.04530835
C        6.10509580       4.96666485      17.03658137       10      -0.00329555       0.00240136      -0.01333386
C        3.67935210       6.36649432      17.03389976       10      -0.00271868       0.00071767      -0.01816443
C        4.89187903       7.06779795      17.03658137       10      -0.00231566       0.00118861      -0.00576856
C        2.46705350       8.46591570      17.05849578       10       0.00408647       0.00188131      -0.00864307
C        3.67865333       9.16633539      17.07244107       10       0.00405118       0.00135426      -0.00788626
C        9.73886029       0.06938351      17.09015150       10      -0.00023205       0.00127661      -0.00333403
C       10.94852201       0.77006947      17.09176932       10       0.00122381      -0.00008099       0.00961393
C        8.52707376       2.16808048      17.09015150       10       0.00172046       0.00102612      -0.02339078
C        9.73877771       2.86550316      17.09176932       10       0.00159247      -0.00133809       0.00245939
C        7.31527025       4.26696653      17.05849578       10      -0.00345698       0.00083996      -0.04498370
C        8.52832391       4.96200817      17.06953875       10      -0.00200241      -0.00116160      -0.01698860
C        6.10666540       6.36834356      17.02197508       10      -0.00298342       0.00239908      -0.03124162
C        7.31575193       7.06679413      16.98964137       10      -0.00199893       0.00117084      -0.03551299
C        4.89032533       8.46612148      17.05849578       10       0.00232801       0.00064398       0.00099260
C        6.09812434       9.16974232      17.06953875       10       0.00412072       0.00053478       0.00274923
O       -2.37786697       8.46877438      15.20187263       11      -0.00191330       0.00152760       0.00021702
