130
Lattice="12.12 0.0 0.0 -6.06 10.496227893867395 0.0 0.0 0.0 40.0" Properties=species:S:1:pos:R:3:tags:I:1:forces:R:3 energy=-1199.1357847362972 stress="0.002822975473908667 3.20785396059385e-08 3.9080255604579706e-11 3.20785396059385e-08 0.0028229501612618605 -2.882992492250809e-10 3.9080255604579706e-11 -2.882992492250809e-10 0.0017427450382022803" pbc="T T F"
C        0.00000000       0.00000002      10.00085584        2      -0.00000002      -0.00000012      -0.00433866
Ti      -0.00000002       1.74937128       8.68930862        0       0.00000013       0.00000030      -0.00040737
Ti       1.51500003       0.87468571      11.31211208        0      -0.00000011      -0.00000017      -0.00380293
O        0.00000005       1.74937142      12.23008024        3      -0.00000041      -0.00000085       0.02915714
O        1.51499997       0.87468563       7.76982165        1       0.00000008       0.00000015      -0.00514605
C       -1.51499998       2.62405701      10.00085583        2      -0.00000003      -0.00000021      -0.00433903
Ti      -1.51500003       4.37342828       8.68930847        0       0.00000021      -0.00000001      -0.00040731
Ti       0.00000000       3.49874266      11.31211208        0      -0.00000016      -0.00000006      -0.00380358
O       -1.51499995       4.37342834      12.23008024        3      -0.00000042      -0.00000026       0.02915694
O       -0.00000004       3.49874260       7.76982161        1       0.00000011       0.00000009      -0.00514588
C       -3.02999999       5.24811392      10.00085580        2      -0.00000004       0.00000009      -0.00433916
Ti      -3.03000003       6.99748530       8.68930850        0       0.00000009      -0.00000015      -0.00040734
Ti      -1.51499992       6.12279962      11.31211207        0      -0.00000012       0.00000007      -0.00380358
O       -3.02999994       6.99748519      12.23008024        3      -0.00000036       0.00000041       0.02915679
O       -1.51500004       6.12279961       7.76982161        1       0.00000007      -0.00000005      -0.00514599
C       -4.54499999       7.87217090      10.00085583        2      -0.00000001       0.00000021      -0.00433878
Ti      -4.54500005       9.62154227       8.68930864        0       0.00000009       0.00000007      -0.00040750
Ti      -3.02999998       8.74685654      11.31211206        0      -0.00000008      -0.00000004      -0.00380290
O       -4.54499995       9.62154226      12.23008024        3      -0.00000034      -0.00000016       0.02915694
O       -3.03000003       8.74685659       7.76982170        1       0.00000005       0.00000004      -0.00514618
C        3.03000003       0.00000004      10.00085583        2      -0.00000021      -0.00000024      -0.00433897
Ti       3.02999995       1.74937126       8.68930846        0       0.00000015       0.00000031      -0.00040710
Ti       4.54500000       0.87468565      11.31211207        0      -0.00000003      -0.00000019      -0.00380358
O        3.03000006       1.74937144      12.23008024        3      -0.00000048      -0.00000098       0.02915704
O        4.54499999       0.87468562       7.76982163        1       0.00000003       0.00000013      -0.00514582
C        1.51500003       2.62405703      10.00085580        2      -0.00000024      -0.00000036      -0.00433932
Ti       1.51499999       4.37342826       8.68930836        0       0.00000022       0.00000011      -0.00040678
Ti       3.02999997       3.49874267      11.31211208        0      -0.00000006      -0.00000010      -0.00380421
O        1.51500005       4.37342834      12.23008024        3      -0.00000055      -0.00000036       0.02915707
O        3.02999999       3.49874260       7.76982154        1       0.00000005       0.00000007      -0.00514554
C        0.00000003       5.24811396      10.00085577        2      -0.00000027      -0.00000002      -0.00433945
Ti      -0.00000003       6.99748523       8.68930843        0       0.00000018      -0.00000015      -0.00040700
Ti       1.51500000       6.12279960      11.31211207        0      -0.00000009       0.00000011      -0.00380421
O        0.00000007       6.99748522      12.23008024        3      -0.00000052       0.00000040       0.02915718
O        1.51500000       6.12279962       7.76982155        1       0.00000006      -0.00000009      -0.00514569
C       -1.51499997       7.87217090      10.00085580        2      -0.00000024       0.00000007      -0.00433911
Ti      -1.51500001       9.62154222       8.68930852        0       0.00000018       0.00000010      -0.00040728
Ti       0.00000002       8.74685656      11.31211208        0      -0.00000005       0.00000004      -0.00380355
O       -1.51499993       9.62154224      12.23008024        3      -0.00000049      -0.00000025       0.02915697
O       -0.00000000       8.74685659       7.76982163        1       0.00000004      -0.00000003      -0.00514594
C        6.05999999      -0.00000000      10.00085582        2       0.00000003      -0.00000011      -0.00433923
Ti       6.06000003       1.74937130       8.68930847        0      -0.00000013       0.00000018      -0.00040717
Ti       7.57500000       0.87468563      11.31211207        0       0.00000012      -0.00000006      -0.00380321
O        6.05999996       1.74937137      12.23008024        3       0.00000042      -0.00000049       0.02915683
O        7.57500004       0.87468564       7.76982165        1      -0.00000009       0.00000002      -0.00514584
C        4.54500000       2.62405700      10.00085578        2       0.00000006      -0.00000021      -0.00433956
Ti       4.54500004       4.37342829       8.68930840        0      -0.00000014      -0.00000008      -0.00040683
Ti       6.05999996       3.49874264      11.31211209        0       0.00000013      -0.00000003      -0.00380385
O        4.54499995       4.37342828      12.23008024        3       0.00000041       0.00000015       0.02915692
O        6.06000003       3.49874261       7.76982156        1      -0.00000010       0.00000001      -0.00514562
C        3.02999998       5.24811392      10.00085577        2       0.00000001       0.00000011      -0.00433969
Ti       3.03000001       6.99748529       8.68930844        0      -0.00000010      -0.00000032      -0.00040696
Ti       4.54499996       6.12279959      11.31211205        0       0.00000012       0.00000019      -0.00380387
O        3.02999994       6.99748514      12.23008024        3       0.00000036       0.00000091       0.02915717
O        4.54500003       6.12279965       7.76982159        1      -0.00000009      -0.00000015      -0.00514571
C        1.51500002       7.87217089      10.00085579        2       0.00000002       0.00000023      -0.00433938
Ti       1.51500001       9.62154222       8.68930851        0      -0.00000010      -0.00000011      -0.00040734
Ti       3.02999997       8.74685649      11.31211205        0       0.00000009       0.00000012      -0.00380323
O        1.51499996       9.62154218      12.23008024        3       0.00000038       0.00000029       0.02915710
O        3.03000004       8.74685662       7.76982165        1      -0.00000006      -0.00000012      -0.00514594
C        9.08999998      -0.00000000      10.00085584        2       0.00000024       0.00000003      -0.00433894
Ti       9.09000005       1.74937129       8.68930858        0      -0.00000018       0.00000011      -0.00040753
Ti      10.60500001       0.87468567      11.31211207        0       0.00000004      -0.00000005      -0.00380259
O        9.08999995       1.74937136      12.23008024        3       0.00000049      -0.00000034       0.02915696
O       10.60500001       0.87468565       7.76982167        1      -0.00000002       0.00000006      -0.00514610
C        7.57499998       2.62405698      10.00085581        2       0.00000024      -0.00000010      -0.00433927
Ti       7.57500002       4.37342829       8.68930850        0      -0.00000019      -0.00000009      -0.00040725
Ti       9.09000000       3.49874266      11.31211206        0       0.00000004       0.00000000      -0.00380328
O        7.57499993       4.37342826      12.23008024        3       0.00000052       0.00000023       0.02915691
O        9.09000002       3.49874261       7.76982163        1      -0.00000005      -0.00000001      -0.00514594
C        6.05999997       5.24811392      10.00085579        2       0.00000024       0.00000024      -0.00433939
Ti       6.06000001       6.99748531       8.68930853        0      -0.00000021      -0.00000033      -0.00040732
Ti       7.57499999       6.12279959      11.31211207        0       0.00000009       0.00000013      -0.00380325
O        6.05999993       6.99748515      12.23008024        3       0.00000053       0.00000097       0.02915678
O        7.57500001       6.12279964       7.76982165        1      -0.00000009      -0.00000010      -0.00514601
C        4.54499996       7.87217087      10.00085582        2       0.00000023       0.00000034      -0.00433904
Ti       4.54500005       9.62154228       8.68930861        0      -0.00000019      -0.00000010      -0.00040761
Ti       6.05999999       8.74685660      11.31211208        0       0.00000008       0.00000011      -0.00380255
O        4.54499993       9.62154219      12.23008024        3       0.00000049       0.00000038       0.02915698
O        6.06000001       8.74685661       7.76982169        1      -0.00000005      -0.00000007      -0.00514616
C        0.04482937       0.06749703      18.23008024       10       0.00589695       0.00217217      -0.00494706
C        1.25689147       0.76721025      18.23008024       10      -0.00008203       0.00021288      -0.00494742
C       -1.16699753       2.16673991      18.23008024       10       0.00030230       0.00046953      -0.00494744
C        0.04501950       2.86643424      18.23008024       10      -0.00058898       0.00142728      -0.00494742
C       -2.37901582       4.26603087      18.23008024       10       0.00085128      -0.00064113      -0.00494756
C       -1.16698993       4.96573639      18.23008024       10      -0.00047554       0.00038367      -0.00494769
C       -3.59103520       6.36532081      18.23008024       10       0.00109486      -0.00067251      -0.00494745
C       -2.37901913       7.06503423      18.23008024       10       0.00039906      -0.00098313      -0.00494764
C       -4.80297352       8.46456590      18.23008024       10       0.00372274      -0.00025330      -0.00494721
C       -3.59087884       9.16426982      18.23008024       10      -0.00395125      -0.00185497      -0.00494731
C        2.46885196       0.06745592      18.23008024       10       0.00246041       0.00179361      -0.00494732
C        3.68081546       0.76723707      18.23008024       10       0.00351385       0.00114790      -0.00494758
C        1.25699272       2.16665930      18.23008024       10       0.00030868       0.00211763      -0.00494750
C        2.46899349       2.86648172      18.23008024       10      -0.00005231       0.00068979      -0.00494760
C        0.04499150       4.26594344      18.23008024       10       0.00054897       0.00114499      -0.00494762
C        1.25697780       4.96576155      18.23008024       10       0.00047043       0.00040666      -0.00494781
C       -1.16704525       6.36524514      18.23008024       10       0.00148771       0.00078345      -0.00494767
C        0.04495673       7.06505376      18.23008024       10       0.00117674      -0.00065092      -0.00494800
C       -2.37892393       8.46450524      18.23008024       10      -0.00040504       0.00059835      -0.00494762
C       -1.16694872       9.16427989      18.23008024       10       0.00019353      -0.00007550      -0.00494781
C        4.89286116       0.06754054      18.23008024       10       0.00179472      -0.00012301      -0.00494762
C        6.10490153       0.76726810      18.23008024       10       0.00130343       0.00055120      -0.00494748
C        3.68099209       2.16673812      18.23008024       10      -0.00029895       0.00092950      -0.00494790
C        4.89303439       2.86652763      18.23008024       10      -0.00084652       0.00020872      -0.00494746
C        2.46899014       4.26601443      18.23008024       10       0.00018683       0.00007387      -0.00494769
C        3.68100981       4.96581642      18.23008024       10      -0.00018684      -0.00007387      -0.00494762
C        1.25696560       6.36530317      18.23008024       10       0.00084651      -0.00020873      -0.00494774
C        2.46900788       7.06509268      18.23008024       10       0.00029892      -0.00092952      -0.00494790
C        0.04509848       8.46456268      18.23008024       10      -0.00130341      -0.00055120      -0.00494768
C        1.25713887       9.16429024      18.23008024       10      -0.00179473       0.00012299      -0.00494795
C        7.31694873       0.06755088      18.23008024       10      -0.00019352       0.00007549      -0.00494743
C        8.52892392       0.76732553      18.23008024       10       0.00040504      -0.00059833      -0.00494758
C        6.10504325       2.16677701      18.23008024       10      -0.00117674       0.00065093      -0.00494819
C        7.31704524       2.86658564      18.23008024       10      -0.00148769      -0.00078346      -0.00494745
C        4.89302215       4.26606929      18.23008024       10      -0.00047041      -0.00040662      -0.00494823
C        6.10500849       4.96588740      18.23008024       10      -0.00054900      -0.00114500      -0.00494752
C        3.68100649       6.36534912      18.23008024       10       0.00005232      -0.00068980      -0.00494756
C        4.89300726       7.06517153      18.23008024       10      -0.00030874      -0.00211761      -0.00494760
C        2.46918456       8.46459372      18.23008024       10      -0.00351385      -0.00114791      -0.00494765
C        3.68114804       9.16437488      18.23008024       10      -0.00246041      -0.00179357      -0.00494736
C        9.74087886       0.06756097      18.23008024       10       0.00395127       0.00185498      -0.00494719
C       10.95297354       0.76726489      18.23008024       10      -0.00372274       0.00025330      -0.00494752
C        8.52901914       2.16679655      18.23008024       10      -0.00039902       0.00098314      -0.00494783
C        9.74103521       2.86651002      18.23008024       10      -0.00109488       0.00067251      -0.00494760
C        7.31698995       4.26609445      18.23008024       10       0.00047552      -0.00038361      -0.00494829
C        8.52901585       4.96579997      18.23008024       10      -0.00085126       0.00064112      -0.00494750
C        6.10498050       6.36539663      18.23008024       10       0.00058898      -0.00142728      -0.00494793
C        7.31699754       7.06509092      18.23008024       10      -0.00030229      -0.00046950      -0.00494743
C        4.89310855       8.46462056      18.23008024       10       0.00008203      -0.00021289      -0.00494721
C        6.10517064       9.16433374      18.23008024       10      -0.00589694      -0.00217214      -0.00494741
