131
Lattice="12.12 0.0 0.0 -6.06 10.496227893867395 0.0 0.0 0.0 40.0" Properties=species:S:1:pos:R:3:tags:I:1:forces:R:3 stress="0.0028763960417548017 5.1595505028537346e-08 -1.3142187387810519e-06 5.1595505028537346e-08 0.0028760162801186578 9.513144040928387e-07 -1.3142187387810519e-06 9.513144040928387e-07 0.0019175186623862266" energy=-1203.9504269547444 pbc="T T F"
C       -0.00044730       0.00027943      10.00127849        2       0.00013745      -0.00006918      -0.00007220
Ti       0.00003456       1.74935955       8.71030470        0       0.00001302       0.00023831       0.00063663
Ti       1.51469965       0.87572282      11.29158305        0       0.00026917      -0.00043149       0.00082350
O       -0.00118580       1.74957201      12.23008024        3       0.00019938      -0.00007553       0.08452315
O        1.51551259       0.87376025       7.77258274        1      -0.00053933       0.00066067       0.00018626
C       -1.51521837       2.62414511      10.00104343        2      -0.00008498       0.00014687       0.00008683
Ti      -1.51499909       4.37390571       8.71170447        0      -0.00015473       0.00017129       0.00014364
Ti      -0.00000842       3.49897234      11.29151807        0      -0.00004304       0.00012165      -0.00019505
O       -1.51466260       4.37073291      12.23008024        3      -0.00009099      -0.00004754       0.07227025
O       -0.00050207       3.49906794       7.77123601        1       0.00002066      -0.00008133       0.00047259
C       -3.03014331       5.24797947      10.00317854        2      -0.00019559       0.00022821      -0.00080635
Ti      -3.03010413       6.99771778       8.71579098        0      -0.00019762       0.00008526      -0.00216483
Ti      -1.51544934       6.12381767      11.29808662        0      -0.00052825       0.00041340       0.00052770
O       -3.03099531       6.99431339      12.23008024        3       0.00009611      -0.00021860       0.05208021
O       -1.51560425       6.12403182       7.77463810        1       0.00011516      -0.00047769      -0.00083884
C       -4.54533113       7.87223889      10.00547903        2       0.00029040       0.00011997      -0.00126807
Ti      -4.54475997       9.62141296       8.71411875        0      -0.00027802       0.00020587      -0.00096553
Ti      -3.03012703       8.74702241      11.31139711        0       0.00034853      -0.00018352      -0.00050687
O       -4.54965783       9.62436535      12.23008024        3       0.00008725      -0.00003277       0.07556588
O       -3.02954691       8.74670379       7.77705173        1      -0.00060086       0.00029390      -0.00243870
C        3.02980319       0.00030926      10.00562656        2       0.00011422      -0.00025226      -0.00136952
Ti       3.03009286       1.74951083       8.71153174        0      -0.00022261      -0.00013572       0.00050918
Ti       4.54398134       0.87477938      11.29540204        0      -0.00005628      -0.00061057       0.00019868
O        3.02857471       1.75170884      12.23008024        3       0.00002926      -0.00005443       0.06886389
O        4.54473912       0.87331286       7.77382344        1      -0.00014817       0.00102031      -0.00071050
C        1.51471448       2.62449773      10.00087386        2       0.00017973       0.00014289       0.00024256
Ti       1.51488687       4.37351627       8.71059300        0      -0.00018755       0.00036731      -0.00023503
Ti       3.02995635       3.49918645      11.29142591        0      -0.00015741       0.00006870      -0.00012224
O        1.51487686       4.37311915      12.23008024        3      -0.00027187       0.00017786       0.07195357
O        3.02985721       3.49815683       7.77118122        1      -0.00023712       0.00055583       0.00032148
C        0.00027474       5.24775073      10.00218543        2      -0.00014715       0.00030343      -0.00025819
Ti       0.00014507       6.99744389       8.71350071        0      -0.00052712       0.00032536       0.00016947
Ti       1.51523144       6.12270391      11.29183957        0      -0.00035002       0.00021015       0.00010962
O        0.00221404       6.99610972      12.23008024        3      -0.00035920       0.00023745       0.05162115
O        1.51388386       6.12349020       7.77192875        1       0.00041937      -0.00020211       0.00024066
C       -1.51538710       7.87241208      10.00757810        2      -0.00032519       0.00022921      -0.00201009
Ti      -1.51519895       9.62154516       8.71613252        0      -0.00015228       0.00018658      -0.00243809
Ti      -0.00114308       8.74680626      11.29878687        0      -0.00072480       0.00025985       0.00050720
O       -1.51303751       9.62402639      12.23008024        3       0.00020724       0.00015114       0.05322517
O       -0.00136207       8.74687668       7.77482242        1       0.00051978       0.00009863      -0.00093311
C        6.06001098       0.00022187      10.00357277        2      -0.00031099       0.00007898      -0.00095238
Ti       6.05967292       1.74932631       8.71158447        0      -0.00037134       0.00017063       0.00015271
Ti       7.57470833       0.87475356      11.29199516        0      -0.00017758       0.00006163      -0.00005161
O        6.06100856       1.75104458      12.23008024        3      -0.00017206       0.00027224       0.07313846
O        7.57443901       0.87436274       7.77187105        1       0.00003414       0.00027013       0.00011950
C        4.54490986       2.62484477      10.00137326        2      -0.00035350       0.00015453      -0.00008260
Ti       4.54498550       4.37346278       8.71045117        0      -0.00025525       0.00014380      -0.00075804
Ti       6.05958640       3.49903525      11.29129789        0      -0.00036466       0.00018151      -0.00016603
O        4.54489091       4.37363286      12.23008024        3      -0.00009153       0.00007215       0.06724656
O        6.06032323       3.49848748       7.77139460        1      -0.00038039       0.00032697       0.00029257
C        3.03003284       5.24812655      10.00072510        2      -0.00014992       0.00013911       0.00034512
Ti       3.02987720       6.99757030       8.71063077        0      -0.00038654       0.00001867      -0.00028054
Ti       4.54464232       6.12275123      11.29136419        0      -0.00010304       0.00013041       0.00002941
O        3.03022489       6.99772762      12.23008024        3      -0.00032058       0.00016049       0.07821338
O        4.54540249       6.12323978       7.77115072        1      -0.00048432       0.00002965       0.00041141
C        1.51547934       7.87211122      10.00228153        2      -0.00035044       0.00000942      -0.00027333
Ti       1.51462521       9.62129564       8.71185230        0      -0.00023965       0.00006626       0.00020450
Ti       3.02986887       8.74676150      11.29152649        0      -0.00022541       0.00004610      -0.00006965
O        1.51736113       9.62246100      12.23008024        3       0.00007171       0.00010225       0.07159289
O        3.02943391       8.74718234       7.77134377        1       0.00016554       0.00002803       0.00051858
C        9.08986576       0.00014156      10.00112887        2      -0.00022460       0.00002661       0.00006037
Ti       9.08978769       1.74947465       8.71058683        0      -0.00014551       0.00008975      -0.00044834
Ti      10.60482670       0.87478916      11.29184064        0      -0.00003555       0.00002382      -0.00003570
O        9.09027172       1.74926913      12.23008024        3      -0.00014594       0.00004897       0.06733151
O       10.60488088       0.87474340       7.77088698        1      -0.00010379       0.00005258       0.00051286
C        7.57490711       2.62411981      10.00129742        2      -0.00032941       0.00017075      -0.00001561
Ti       7.57489601       4.37374710       8.71127615        0      -0.00030669       0.00026242       0.00035718
Ti       9.08975539       3.49887036      11.29186378        0      -0.00011216       0.00009286      -0.00006652
O        7.57430757       4.37207982      12.23008024        3      -0.00028405       0.00009370       0.06677425
O        9.09001621       3.49931340       7.77169799        1      -0.00024282      -0.00009415       0.00018127
C        6.05937543       5.24789499      10.00120055        2      -0.00029653       0.00026231       0.00007004
Ti       6.05990772       6.99743754       8.71148092        0       0.00009571       0.00028477       0.00056910
Ti       7.57439323       6.12339495      11.29428862        0       0.00036143       0.00037725       0.00034704
O        6.05769767       6.99732709      12.23008024        3       0.00009242       0.00009260       0.06901025
O        7.57603814       6.12376052       7.77352907        1      -0.00094545      -0.00035294      -0.00042931
C        4.54457503       7.87222938      10.00098325        2      -0.00004876      -0.00017853       0.00029136
Ti       4.54506744       9.62149820       8.71049009        0      -0.00021840      -0.00008027       0.00056249
Ti       6.05943145       8.74660638      11.29231280        0       0.00025965       0.00005778       0.00027196
O        4.54437293       9.62254136      12.23008024        3       0.00008423      -0.00004829       0.08107848
O        6.06107205       8.74697788       7.77260752        1      -0.00084955       0.00008652       0.00024590
C        0.04160088       0.06971654      17.82329234       10       0.00522899       0.00023299      -0.00583348
C        1.25213769       0.76914410      17.80800029       10       0.00050588      -0.00187323       0.02052244
C       -1.16833028       2.16778985      17.82861304       10      -0.00033956       0.00052813      -0.01113311
C        0.04352100       2.86740888      17.81090261       10      -0.00021260       0.00070680       0.00889803
C       -2.38026631       4.26484061      17.82329234       10      -0.00296941       0.00042718       0.01850750
C       -1.16922884       4.96338868      17.80800029       10      -0.00074602       0.00058880       0.03928705
C       -3.58737896       6.36740838      17.76018159       10      -0.00227004       0.00041989      -0.01320284
C       -2.38029625       7.04855281      17.71835937       10       0.00050952      -0.00053936      -0.42659721
C       -4.80091227       8.46939348      17.76018159       10       0.00329371      -0.00083136      -0.02146021
C       -3.60726820       9.17399562      17.71835937       10       0.00013664      -0.00198690      -0.45035854
C        2.46600121       0.06373509      17.76018159       10       0.00275887      -0.00228121      -0.02327667
C        3.67951384       0.76656511      17.72810291       10       0.00332150       0.00152887       0.16971576
C        1.25506957       2.16715661      17.79695732       10       0.00123655      -0.00123643      -0.02224031
C        2.46716954       2.86641106      17.77504291       10       0.00039546       0.00065952      -0.04046958
C        0.04290554       4.26680367      17.79695732       10       0.00061819      -0.00119359      -0.02556228
C        1.25455813       4.96687642      17.77504291       10      -0.00166818       0.00033694      -0.02864417
C       -1.17327807       6.36730855      17.76018159       10       0.00082166       0.00099037      -0.02848107
C        0.04218954       7.06689422      17.72810291       10      -0.00024030      -0.00118093       0.18163821
C       -2.38025826       8.46534211      17.26555371       10       0.00160056      -0.00210331       0.26585011
C       -1.15336389       9.17395368      17.71835937       10       0.00078980       0.00122087      -0.42938638
C        4.89305364       0.06371949      17.76018159       10      -0.00000759      -0.00282904      -0.01904944
C        6.10699584       0.76901647      17.80800029       10       0.00080883       0.00108574       0.03946261
C        3.67967449       2.16381669      17.76043662       10      -0.00120544       0.00152901      -0.07242068
C        4.89223407       2.86632367      17.77504291       10      -0.00026099       0.00029536      -0.04420332
C        2.46702348       4.26655140      17.77236130       10      -0.00147015       0.00008870       0.00321212
C        3.67982081       4.96672020      17.76736053       10      -0.00056911       0.00103784      -0.03219488
C        1.25231218       6.36821321      17.76043662       10       0.00066307      -0.00031704      -0.09332281
C        2.46698318       7.06694624      17.77504291       10       0.00092144       0.00096410      -0.02857928
C        0.04015906       8.46931431      17.76018159       10       0.00020871      -0.00168097      -0.03482321
C        1.25805397       9.16768021      17.80800029       10       0.00047841       0.00320558       0.03921868
C        7.31752819       0.06955987      17.82329234       10      -0.00069212      -0.00140356       0.01783165
C        8.52878699       0.76889058      17.83023086       10       0.00032032       0.00084822      -0.00803470
C        6.10430170       2.16705130      17.79695732       10      -0.00038368       0.00239071      -0.01091647
C        7.31584532       2.86739476      17.81090261       10      -0.00098413      -0.00080405      -0.00993942
C        4.89260358       4.26649766      17.77236130       10      -0.00054369       0.00098878       0.00836894
C        6.10499924       4.96691461      17.77504291       10      -0.00153245       0.00086621      -0.05038309
C        3.67975289       6.36713814      17.77236130       10      -0.00120347      -0.00058548       0.00594064
C        4.89240610       7.06701832      17.77504291       10      -0.00027907       0.00115242      -0.03965324
C        2.46745536       8.46628393      17.79695732       10      -0.00156732      -0.00141939      -0.02654112
C        3.67966196       9.16541019      17.81090261       10       0.00098564       0.00202457       0.01013568
C        9.73960224       0.06851235      17.82861304       10       0.00200527      -0.00046703      -0.01559775
C       10.95040741       0.76900630      17.83023086       10      -0.00015313      -0.00175683      -0.01883215
C        8.52768067       2.16773157      17.82861304       10      -0.00160996       0.00152827      -0.00441519
C        9.73964809       2.86620833      17.83023086       10       0.00274700      -0.00124780      -0.01523159
C        7.31657560       4.26678750      17.79695732       10      -0.00158390      -0.00001363      -0.01044742
C        8.52865699       4.96344600      17.80800029       10       0.00244224      -0.00073099       0.03798215
C        6.10714131       6.36830753      17.76043662       10      -0.00106330      -0.00242333      -0.07218789
C        7.31716128       7.06700605      17.72810291       10       0.00048966      -0.00196560       0.17115371
C        4.89193410       8.46636678      17.79695732       10       0.00176501      -0.00082949      -0.02022819
C        6.10123901       9.16793358      17.80800029       10      -0.00104197      -0.00231732       0.02404265
O       -2.37932176       8.46266709      15.91512623       11       0.00093967       0.00049313      -0.00236583
