132
Lattice="12.12 0.0 0.0 -6.06 10.496227893867395 0.0 0.0 0.0 40.0" Properties=species:S:1:pos:R:3:tags:I:1:forces:R:3 stress="0.002801179072785436 6.022190860940578e-07 1.2695325357294163e-06 6.022190860940578e-07 0.002799899948291834 3.1159561581411876e-06 1.2695325357294163e-06 3.1159561581411876e-06 0.0021086929798490193" energy=-1209.5492116778255 pbc="T T F"
C        0.00181317       0.00381799      10.00001918        2       0.00512417       0.00083669      -0.00517315
Ti       0.00108655       1.75319753       8.69278813        0       0.00028241       0.00078057       0.00043473
Ti       1.51401234       0.88026410      11.31006117        0       0.00063150      -0.00027362      -0.00175287
O        0.00010580       1.75435209      12.23008024        3      -0.00041461       0.00053892       0.07476001
O        1.51405403       0.88065851       7.77005062        1      -0.00059185       0.00052849      -0.00106478
C       -1.51579668       2.63015093      10.00948459        2      -0.00074327       0.00081183      -0.00132836
Ti      -1.51582612       4.38031596       8.69307042        0       0.00237971       0.00076797       0.00130195
Ti      -0.00252733       3.50386323      11.31468744        0       0.00280706       0.00058749      -0.00158800
O       -1.51470270       4.38052906      12.23008024        3       0.00195014      -0.00214153       0.01135780
O       -0.00255694       3.50364478       7.77519126        1       0.00395308       0.00055977      -0.00381509
C       -3.03071638       5.25555487      10.00417815        2       0.00271502       0.00318152      -0.00694697
Ti      -3.03076050       7.00373554       8.69190479        0      -0.00067178      -0.00256458       0.00382436
Ti      -1.51588122       6.12736339      11.31639931        0      -0.00077404       0.00497127      -0.00436908
O       -3.03040880       7.00363151      12.23008024        3      -0.00110951      -0.00090791       0.10541553
O       -1.51559436       6.12694445       7.77294132        1       0.00041194       0.00257723      -0.00277868
C       -4.54583543       7.87749806      10.00153212        2      -0.00160714       0.00055427      -0.00157897
Ti      -4.54496266       9.62588915       8.68891297        0      -0.00087531       0.00048797       0.00249653
Ti      -3.03057174       8.75294299      11.30802848        0      -0.00030730       0.00054491       0.00201505
O       -4.54590828       9.62617986      12.23008024        3       0.00017928       0.00011917       0.07686115
O       -3.03060517       8.75084603       7.76822737        1       0.00177195       0.00357044      -0.00151863
C        3.02948133       0.00467357      10.00110087        2      -0.00036051       0.00227711       0.00208151
Ti       3.02993524       1.75502176       8.69224572        0      -0.00043015       0.00165130       0.00181957
Ti       4.54516889       0.88004274      11.30887227        0      -0.00039137      -0.00102589       0.00207249
O        3.03020954       1.75420005      12.23008024        3      -0.00021993       0.00112035       0.08167661
O        4.54490245       0.88031593       7.76941449        1      -0.00087283      -0.00088968       0.00039012
C        1.51546123       2.62889404      10.00285453        2       0.00167279      -0.00345044      -0.00458502
Ti       1.51449104       4.37861325       8.69391971        0      -0.00169959      -0.00036322       0.00104969
Ti       3.02964440       3.50384849      11.30830989        0       0.00028862       0.00073602       0.00070542
O        1.51349433       4.37828957      12.23008024        3      -0.00124741      -0.00023123       0.08577981
O        3.02886331       3.50431300       7.77115455        1       0.00054800       0.00147103      -0.00220549
C        0.00017924       5.25391882      10.00396344        2      -0.00328749       0.00192900      -0.00315335
Ti       0.00017260       7.00302323       8.69331735        0      -0.00074040      -0.00125227       0.00206338
Ti       1.51461522       6.12790191      11.30863145        0       0.00337901      -0.00028121      -0.00021655
O        0.00043619       7.00449751      12.23008024        3      -0.00142811      -0.00130032       0.15546401
O        1.51416527       6.12716418       7.77143121        1       0.00012105       0.00049473      -0.00123299
C       -1.51574008       7.87727385      10.00236187        2       0.00063456       0.00097824      -0.00042609
Ti      -1.51588840       9.62626918       8.69067650        0       0.00017120       0.00011559       0.00043938
Ti       0.00007588       8.75330028      11.30858271        0       0.00064521       0.00052059       0.00261077
O       -1.51539283       9.62680044      12.23008024        3       0.00065788       0.00031313       0.09321609
O       -0.00044496       8.75135814       7.76917838        1      -0.00100235       0.00191054      -0.00009063
C        6.05768399       0.00422081      10.00005337        2      -0.00006923       0.00042196      -0.00063985
Ti       6.05829740       1.75385828       8.69177980        0       0.00111387       0.00200946       0.00160186
Ti       7.57633965       0.88145454      11.30460036        0      -0.00219532       0.00046393      -0.00428045
O        6.06055291       1.75318848      12.23008024        3      -0.00049700       0.00212568       0.15403737
O        7.57554226       0.88127223       7.77183473        1      -0.00160306      -0.00117365      -0.00374793
C        4.54556493       2.62883798      10.00255023        2      -0.00210110       0.00197626      -0.00193393
Ti       4.54461920       4.37866323       8.69162653        0       0.00198939      -0.00101421       0.00186518
Ti       6.06133768       3.50281216      11.31213400        0      -0.00321232       0.00178198      -0.00175351
O        4.54573722       4.37847742      12.23008024        3      -0.00065934       0.00049803       0.13802858
O        6.06147867       3.50379845       7.77287322        1      -0.00286314       0.00008543      -0.00323652
C        3.03003669       5.25342368      10.00317901        2      -0.00067350       0.00166381      -0.00171915
Ti       3.02923972       7.00310031       8.69077433        0      -0.00062046       0.00178191       0.00384748
Ti       4.54422108       6.12785367      11.30864959        0      -0.00215736       0.00067121      -0.00072645
O        3.02920813       7.00408932      12.23008024        3      -0.00078507       0.00037207       0.10113565
O        4.54365413       6.12765095       7.76998632        1       0.00132453       0.00102736      -0.00055681
C        1.51427686       7.87868057      10.00181537        2       0.00266744      -0.00234502      -0.00134591
Ti       1.51295544       9.62625376       8.69022726        0       0.00079994       0.00066317       0.00079255
Ti       3.03020061       8.75470148      11.30933057        0       0.00125963      -0.00249976       0.00007122
O        1.51399693       9.62765841      12.23008024        3      -0.00028377      -0.00097076       0.10699002
O        3.02934233       8.75325907       7.77057675        1       0.00098945      -0.00034141      -0.00052482
C        9.08907191       0.00561370      10.00317174        2      -0.00242193       0.00330975      -0.00178084
Ti       9.08891374       1.75452399       8.69287903        0       0.00093469      -0.00093764       0.00163082
Ti      10.60480952       0.88286822      11.29886775        0       0.00090691      -0.00025019      -0.00352744
O        9.09155290       1.75532502      12.23008024        3       0.00208377      -0.00237952       0.13829749
O       10.60383082       0.88234823       7.77263159        1       0.00220630      -0.00256147      -0.00527424
C        7.57457415       2.62934252      10.00572667        2       0.00111182      -0.00171922      -0.00612658
Ti       7.57466044       4.37980421       8.69376368        0      -0.00090931       0.00090168       0.00101287
Ti       9.08852580       3.50687696      11.30911299        0       0.00114370       0.00127051      -0.00033948
O        7.57295638       4.38089970      12.23008024        3      -0.00062529       0.00070718       0.10147935
O        9.09055264       3.50385861       7.77438874        1      -0.00093203       0.00006104      -0.00379722
C        6.05866677       5.25409942      10.00140741        2       0.00000691      -0.00011158       0.00021710
Ti       6.05875832       7.00201376       8.69143827        0       0.00263410       0.00097613       0.00213591
Ti       7.57406715       6.12939350      11.30984491        0      -0.00101808       0.00141465      -0.00183378
O        6.05875472       7.00369857      12.23008024        3       0.00103057       0.00070700       0.08276620
O        7.57502475       6.12670670       7.77140895        1       0.00003508       0.00440558      -0.00229835
C        4.54413552       7.87829161      10.00158752        2      -0.00054936       0.00047051      -0.00124666
Ti       4.54523617       9.62682775       8.69098844        0       0.00110283       0.00110198       0.00052122
Ti       6.05764286       8.75370825      11.30869391        0       0.00112600       0.00113102       0.00092539
O        4.54403350       9.62945389      12.23008024        3       0.00089048       0.00161908       0.08919248
O        6.05894000       8.75211956       7.76935857        1       0.00015264      -0.00033590      -0.00159957
C        0.06058295       0.06597590      17.36163892       10      -0.00434986      -0.00510807      -0.01723585
C        1.26670930       0.77048141      17.37002715       10       0.00096312      -0.00144642      -0.00372632
C       -1.13225006       2.15512690      17.33726825       10      -0.00239997       0.00331255       0.36353704
C        0.05492917       2.86805631      17.34490699       10      -0.00004504      -0.00114186       0.01247064
C       -2.37361424       4.30549060      17.33726270       10       0.00011866       0.00638798       0.49888002
C       -1.16193800       4.97733790      17.34490443       10       0.00346748       0.00257539      -0.04283891
C       -3.58628578       6.37987431      17.36163837       10      -0.00032204      -0.00076112      -0.02889921
C       -2.37311955       7.07406391      17.37002695       10      -0.00067894       0.00007814      -0.02275453
C       -4.79626855       8.46907229      17.35974598       10      -0.00397040       0.00012397      -0.01654573
C       -3.58454609       9.16913412      17.37103564       10       0.00313246       0.00356300      -0.02196017
C        2.47788797       0.07091181      17.37206066       10       0.00007478      -0.00141610      -0.01271078
C        3.68677142       0.77166695      17.37103555       10      -0.00050921       0.00021815      -0.04132449
C        1.27130153       2.16694240      17.36163913       10      -0.00097210      -0.00244604      -0.00744458
C        2.47681097       2.87142050      17.35257900       10      -0.00162022       0.00107503      -0.03335022
C        0.05352892       4.27306384      17.31877911       10       0.00022432      -0.00228708      -0.04810591
C        1.26102957       4.97049515      17.33044906       10      -0.00040245      -0.00494870      -0.04191406
C       -1.16113744       6.38010680      17.36163837       10      -0.00094685      -0.00015351      -0.02505201
C        0.05122680       7.07215247      17.35257910       10      -0.00044131      -0.00352550       0.00449565
C       -2.37332165       8.47263743      17.37206087       10      -0.00130808      -0.00143803      -0.03072199
C       -1.16170298       9.16937786      17.37103564       10      -0.00160617      -0.00156763      -0.03099109
C        4.89545084       0.07125521      17.37206066       10       0.00113012      -0.00229888      -0.02260970
C        6.10627113       0.77034301      17.37002715       10       0.00201608      -0.00226711      -0.01167178
C        3.68708776       2.17086234      17.35974585       10      -0.00178890       0.00080467      -0.02050259
C        4.89662114       2.87116597      17.35257900       10      -0.00356835       0.00164961      -0.02077845
C        2.47492103       4.26958983      17.33869550       10       0.00020654       0.00147845      -0.03620331
C        3.68653472       4.97064074      17.33590764       10      -0.00231095       0.00513714      -0.02574423
C        1.26141564       6.37113338      17.33869540       10      -0.00100967      -0.00713636      -0.02127688
C        2.47397754       7.07015381      17.33590753       10      -0.00080074      -0.00488877      -0.03680356
C        0.04941005       8.46983310      17.35974598       10      -0.00198894      -0.00396763      -0.02588893
C        1.26079012       9.16629877      17.35257885       10      -0.00275795      -0.00304827      -0.01375823
C        7.31178282       0.06626424      17.36163892       10       0.00411901      -0.00317245      -0.03148268
C        8.52593754       0.76899142      17.34490680       10       0.00419454       0.00012651       0.00177084
C        6.10184868       2.16693741      17.36163913       10      -0.00260595      -0.00130517      -0.00941310
C        7.31775856       2.86778256      17.34490699       10      -0.00195717      -0.00197053      -0.00408669
C        4.89921184       4.26928358      17.33869550       10      -0.00595657       0.00164167      -0.02327365
C        6.11190974       4.96994127      17.33044906       10      -0.00218067      -0.00399259      -0.03219406
C        3.68628464       6.36978953      17.33282964       10       0.00515774       0.00369954      -0.03789779
C        4.89768195       7.06962432      17.33590753       10       0.00808906       0.00004603      -0.04307605
C        2.47287806       8.46995461      17.33869523       10      -0.00337933      -0.00485284      -0.01941275
C        3.68617319       9.16965361      17.33044865       10      -0.00365917      -0.00031808      -0.02373379
C        9.74608621       0.06814853      17.31877906       10       0.00070335      -0.00277836      -0.05927140
C       10.96593177       0.76943250      17.34490680       10       0.00639158       0.00229982       0.02548576
C        8.50390407       2.15503103      17.33726825       10       0.00010431       0.00010773       0.36218423
C        9.74582056       2.86889797      17.09290899       10      -0.00059515       0.00520702      -1.73561242
C        7.31925429       4.27308939      17.31877911       10      -0.00287899      -0.00383678      -0.02980835
C        8.53530806       4.97733327      17.34490443       10       0.00007844      -0.00239852      -0.02519639
C        6.11107464       6.37033265      17.33869540       10       0.00596149      -0.00372961      -0.02434959
C        7.32146449       7.07159825      17.35257910       10       0.00519576      -0.00139521      -0.04100162
C        4.90002852       8.46936797      17.33869523       10      -0.00391088      -0.00249333      -0.01027869
C        6.11188927       9.16620980      17.35257885       10       0.00227447      -0.00059718       0.00021555
O        9.74829102       2.94852627      15.54158975       11      -0.00642716       0.00250301       0.00059643
H        9.69916446       2.05057252      15.15875990       12       0.00086276       0.00342004      -0.00100409
