132
Lattice="12.12 0.0 0.0 -6.06 10.496227893867395 0.0 0.0 0.0 40.0" Properties=species:S:1:pos:R:3:tags:I:1:forces:R:3 stress="0.002797764357755135 1.4710944172516414e-06 -1.902985931299556e-08 1.4710944172516414e-06 0.0028004486318874023 1.6376274021693184e-06 -1.902985931299556e-08 1.6376274021693184e-06 0.0020752774330937214" energy=-1209.1048564300718 pbc="T T F"
C        0.00103484       0.00335738      10.00219018        2       0.00029610       0.00008040      -0.00272792
Ti       0.00215478       1.75185942       8.69190193        0      -0.00035470      -0.00021966      -0.00156481
Ti       1.51594275       0.87768568      11.31108475        0      -0.00032988       0.00099369      -0.00208345
O        0.00037240       1.75233998      12.23008024        3      -0.00056470       0.00004035       0.11705920
O        1.51515646       0.87814075       7.77001624        1      -0.00014102       0.00094958      -0.00024168
C       -1.51384259       2.62736154      10.00499213        2      -0.00058413      -0.00009370      -0.00202251
Ti      -1.51495842       4.37756396       8.69127091        0      -0.00121793      -0.00099750      -0.00188214
Ti      -0.00294579       3.50322736      11.31795342        0      -0.00295368      -0.00060622      -0.00048221
O       -1.51628430       4.37817063      12.23008024        3      -0.00008023      -0.00135464       0.10335212
O       -0.00018471       3.50150450       7.77330280        1      -0.00000911       0.00058532      -0.00014083
C       -3.02993625       5.25327552       9.99943560        2       0.00060787       0.00001858      -0.00202242
Ti      -3.03003761       7.00153142       8.68911328        0       0.00077075       0.00075830      -0.00022413
Ti      -1.51531287       6.12727799      11.31081778        0       0.00088071      -0.00204872      -0.00055895
O       -3.03111575       7.00134657      12.23008024        3       0.00003338      -0.00012992       0.16056165
O       -1.51430194       6.12589297       7.77047898        1       0.00038518       0.00000738      -0.00016497
C       -4.54473194       7.87535284      10.00099995        2      -0.00030060       0.00004982      -0.00137240
Ti      -4.54521938       9.62493778       8.69178607        0       0.00125549       0.00045685      -0.00015709
Ti      -3.03035783       8.74993579      11.31212347        0       0.00009883       0.00041696      -0.00218493
O       -4.54553548       9.62525682      12.23008024        3      -0.00049167       0.00012163       0.11916467
O       -3.02999433       8.75088305       7.76936932        1       0.00088608      -0.00056956       0.00162180
C        3.03058602       0.00343269      10.00172618        2       0.00033017      -0.00008757      -0.00061670
Ti       3.03003492       1.75301533       8.69112463        0      -0.00060022       0.00006090       0.00020175
Ti       4.54619657       0.87898036      11.31233175        0      -0.00055497       0.00014601      -0.00094786
O        3.02975949       1.75267898      12.23008024        3       0.00009415       0.00032390       0.14858327
O        4.54481274       0.87799374       7.76931952        1       0.00151094       0.00060929       0.00187423
C        1.51562098       2.62718876      10.00232605        2       0.00015304      -0.00023335      -0.00272292
Ti       1.51542466       4.37656770       8.69299850        0       0.00097025       0.00075507      -0.00058135
Ti       3.03062173       3.50253472      11.31045159        0      -0.00015445      -0.00050713      -0.00133604
O        1.51458334       4.37534974      12.23008024        3       0.00017802       0.00024875       0.14429321
O        3.02985576       3.50240053       7.77020609        1       0.00046702      -0.00004068       0.00133957
C        0.00011344       5.25156418      10.00307793        2      -0.00007021       0.00045437      -0.00398060
Ti       0.00060369       7.00081673       8.69212596        0       0.00038931      -0.00036207      -0.00043867
Ti       1.51555212       6.12640389      11.31067834        0      -0.00211408      -0.00038087      -0.00195765
O       -0.00010788       7.00055618      12.23008024        3      -0.00030801      -0.00061935       0.11894167
O        1.51518821       6.12586446       7.77111799        1      -0.00023778       0.00060223       0.00122793
C       -1.51523154       7.87576220      10.00205900        2       0.00042900       0.00046384      -0.00048602
Ti      -1.51460049       9.62486793       8.69008761        0      -0.00162589      -0.00000534      -0.00014835
Ti       0.00041447       8.75035695      11.31089073        0       0.00144817      -0.00069673      -0.00020455
O       -1.51563193       9.62555426      12.23008024        3       0.00063486      -0.00005503       0.15510547
O        0.00087584       8.75003107       7.77044205        1      -0.00009387       0.00064041       0.00158853
C        6.05958074       0.00340937      10.00167076        2       0.00012949      -0.00033862      -0.00090397
Ti       6.05974816       1.75271850       8.68908085        0       0.00057999      -0.00097281       0.00000513
Ti       7.57494313       0.87826896      11.31000953        0       0.00142048       0.00024767      -0.00041028
O        6.06061901       1.75268681      12.23008024        3       0.00155380       0.00020901       0.14140909
O        7.57608375       0.87810347       7.77084211        1      -0.00026161      -0.00022042       0.00015610
C        4.54584755       2.62739858      10.00098625        2       0.00033841       0.00091349      -0.00083795
Ti       4.54527317       4.37643242       8.69013707        0      -0.00156004       0.00142785      -0.00056736
Ti       6.06181309       3.50310375      11.30674264        0       0.00093036       0.00010801      -0.00114655
O        4.54588422       4.37664003      12.23008024        3       0.00058800       0.00026377       0.13120310
O        6.06068930       3.50196518       7.76922885        1       0.00018931       0.00068663       0.00001465
C        3.03075292       5.25138919      10.00232941        2      -0.00088406      -0.00004622      -0.00015239
Ti       3.03035611       7.00117664       8.68960735        0       0.00075970      -0.00120968       0.00023088
Ti       4.54565854       6.12612075      11.31127579        0       0.00141001       0.00028388      -0.00120053
O        3.03158311       7.00141248      12.23008024        3       0.00026827       0.00038581       0.15262239
O        4.54520899       6.12629941       7.77001037        1       0.00074205      -0.00012851       0.00239465
C        1.51546398       7.87580681      10.00274409        2       0.00039383       0.00026760      -0.00121452
Ti       1.51530408       9.62464008       8.69231551        0      -0.00005064       0.00085146      -0.00059661
Ti       3.03010480       8.75107476      11.31042951        0       0.00043982       0.00211488      -0.00149456
O        1.51535359       9.62583916      12.23008024        3       0.00110852       0.00188783       0.15154360
O        3.03063087       8.75103339       7.77131615        1      -0.00044666       0.00011077       0.00069784
C        9.09037500       0.00427451      10.00338549        2      -0.00026971      -0.00029647      -0.00331413
Ti       9.08999308       1.75296859       8.69091649        0       0.00047951       0.00136991      -0.00276148
Ti      10.60258139       0.88107258      11.31994381        0      -0.00030312       0.00199351      -0.00038837
O        9.08875411       1.75473272      12.23008024        3       0.00035133      -0.00017201       0.09698829
O       10.60575719       0.87890673       7.77355246        1      -0.00061795       0.00021671      -0.00011115
C        7.57452245       2.62719032      10.00029353        2       0.00016302      -0.00020591      -0.00194660
Ti       7.57598341       4.37674561       8.69000630        0       0.00243725      -0.00104371      -0.00128271
Ti       9.09236859       3.50188538      11.30025249        0       0.00282922      -0.00103826       0.00069476
O        7.58073675       4.37416597      12.23008024        3       0.00074436      -0.00020395       0.15969119
O        9.09154770       3.50147298       7.76980204        1      -0.00014876       0.00002678       0.00194927
C        6.06105410       5.25116430      10.00139150        2       0.00086634      -0.00076585      -0.00169560
Ti       6.06054165       7.00161321       8.69028074        0      -0.00121547       0.00057738      -0.00082590
Ti       7.57507897       6.12340403      11.30941181        0      -0.00012328       0.00010798      -0.00095935
O        6.06129008       7.00133426      12.23008024        3       0.00019257      -0.00037631       0.14911527
O        7.57533690       6.12622275       7.76931748        1      -0.00047203      -0.00053073      -0.00036609
C        4.54576292       7.87562758      10.00219681        2      -0.00028364       0.00162536      -0.00082030
Ti       4.54583735       9.62504324       8.69347811        0       0.00045414       0.00016385      -0.00128963
Ti       6.05978642       8.75036781      11.31020221        0      -0.00034184      -0.00019025      -0.00147661
O        4.54617512       9.62820448      12.23008024        3       0.00000070       0.00107728       0.12238393
O        6.05975712       8.75086220       7.77022304        1      -0.00015499      -0.00060368       0.00015452
C        0.06893631       0.04846477      17.60779277       10      -0.00026893      -0.00026243      -0.06224615
C        1.27646196       0.75161289      17.61618100       10       0.00006906      -0.00028354      -0.05278297
C       -1.12098906       2.13571847      17.58342210       10      -0.00060270       0.00141494       0.50334365
C        0.06593321       2.84919127      17.59106084       10       0.00208457      -0.00025131      -0.05490642
C       -2.36300273       4.28573640      17.58341655       10      -0.00133891      -0.00143528       0.34759114
C       -1.15261312       4.95799472      17.59105828       10      -0.00175422      -0.00068954      -0.00440781
C       -3.57590828       6.36343495      17.60779222       10       0.00009317      -0.00094597      -0.02508431
C       -2.36302569       7.05566183      17.61618080       10      -0.00002889       0.00015714      -0.00270692
C       -4.78683455       8.45151057      17.60589983       10       0.00215808      -0.00169594      -0.04763786
C       -3.57459984       9.15073428      17.61718949       10      -0.00001563       0.00154621      -0.05086573
C        2.48773688       0.05226634      17.61821451       10      -0.00103493       0.00085195      -0.04313750
C        3.69689205       0.75298029      17.61718940       10      -0.00171579       0.00056202      -0.04151298
C        1.28160007       2.14880875      17.60779298       10       0.00277950      -0.00097811      -0.04930476
C        2.48668477       2.85297920      17.59873285       10       0.00206043      -0.00015785      -0.03737867
C        0.06360593       4.25404000      17.56493296       10      -0.00161188      -0.00003643      -0.04681821
C        1.27098631       4.95152228      17.57660291       10      -0.00227367       0.00058880      -0.02196978
C       -1.15189502       6.36153059      17.60779222       10       0.00080319       0.00017422      -0.04783068
C        0.06110920       7.05342969      17.59873295       10       0.00176546      -0.00034253       0.00128539
C       -2.36312158       8.45418792      17.61821472       10      -0.00216481       0.00018766      -0.03176422
C       -1.15177704       9.15102454      17.61718949       10      -0.00240789      -0.00037471      -0.01489764
C        4.90600671       0.05229432      17.61821451       10      -0.00250665      -0.00003245      -0.02664623
C        6.11702296       0.75132343      17.61618100       10      -0.00126274      -0.00051044      -0.02806552
C        3.69623493       2.15230049      17.60589970       10       0.00168090      -0.00006528      -0.02138395
C        4.90541870       2.85317770      17.59873285       10       0.00166011      -0.00086233      -0.04063491
C        2.48475615       4.25145032      17.58484935       10      -0.00243517       0.00003111      -0.03449862
C        3.69638437       4.95248981      17.58206149       10      -0.00154802      -0.00038318      -0.05361723
C        1.27124015       6.35241016      17.58484925       10       0.00130118       0.00013810      -0.06418076
C        2.48443706       7.05143343      17.58206138       10      -0.00005579      -0.00000998      -0.01438419
C        0.05946701       8.45169775      17.60589983       10      -0.00062836       0.00010373      -0.06242572
C        1.27102605       9.14923378      17.59873270       10      -0.00003867       0.00044216      -0.00545216
C        7.32362993       0.04946118      17.60779277       10      -0.00022101       0.00052528      -0.02202914
C        8.53867327       0.75203205      17.59106065       10      -0.00004671      -0.00076206      -0.01994049
C        6.10993275       2.14785594      17.60779298       10       0.00057775      -0.00082672      -0.00383028
C        7.32646121       2.84756353      17.59106084       10      -0.00084699       0.00011584      -0.02592113
C        4.90796300       4.25104728      17.58484935       10       0.00036429      -0.00030350       0.00929778
C        6.12109680       4.95197717      17.57660291       10       0.00052608       0.00072862      -0.06527214
C        3.69660849       6.35163929      17.57898349       10      -0.00195556      -0.00003060      -0.04800136
C        4.90833296       7.05133887      17.58206138       10      -0.00287998       0.00110302      -0.04057685
C        2.48303578       8.45177720      17.58484908       10       0.00019559      -0.00080093      -0.04469384
C        3.69589640       9.15249315      17.57660250       10       0.00134988      -0.00220438      -0.05290784
C        9.75628087       0.05084005      17.56493291       10      -0.00024659      -0.00220540      -0.05489487
C       10.97450653       0.75103575      17.59106065       10      -0.00021530       0.00080335      -0.05876705
C        8.51572087       2.13638472      17.58342210       10      -0.00251859      -0.00098384       0.37042640
C        9.75562911       2.85359936      17.33906284       10      -0.00297486      -0.00114297      -1.75696722
C        7.32879314       4.25467696      17.56493296       10       0.00100386       0.00062454      -0.03550257
C        8.54631855       4.96029978      17.59105828       10       0.00102373      -0.00030466      -0.02319549
C        6.12170634       6.35280417      17.58484925       10      -0.00321830       0.00098547      -0.00297862
C        7.33111274       7.05387470      17.59873295       10      -0.00076269      -0.00188179      -0.02170924
C        4.90915383       8.45130552      17.58484908       10       0.00237246       0.00013177      -0.04260871
C        6.12151441       9.14867699      17.59873270       10       0.00405342      -0.00056230      -0.05542678
O        9.82811573       2.80688453      15.78570418       11       0.00697257       0.00030336       0.00264583
H        9.05262993       3.26374616      15.40835010       12      -0.00658389       0.00145754      -0.00198057
