131
Lattice="12.12 0.0 0.0 -6.06 10.496227893867395 0.0 0.0 0.0 40.0" Properties=species:S:1:pos:R:3:tags:I:1:forces:R:3 stress="0.0026794615426161657 -6.700680019309322e-08 -1.1163074791433094e-07 -6.700680019309322e-08 0.0026794139729773543 7.02630241381216e-07 -1.1163074791433094e-07 7.02630241381216e-07 0.0030859620361958964" energy=-1202.4380271649109 pbc="T T F"
C        0.22439874      -0.09530780       9.93456156        2      -0.00109238       0.00019110      -0.00021293
Ti       0.24681126       1.63561782       8.68802723        0       0.00307104      -0.00130662      -0.00141556
Ti       1.75308949       0.79599549      11.30653537        0       0.00209686      -0.00256420       0.00110936
O        0.22256666       1.66281340      12.23008024        3      -0.00008794      -0.00004014      -0.23708739
O        1.78281988       0.75098381       7.79473787        1       0.00145923       0.00415735      -0.00075280
C       -1.26656106       2.51136756       9.94512029        2      -0.00076586      -0.00091301      -0.00150921
Ti      -1.26771479       4.25981892       8.68774834        0       0.00078158       0.00081724      -0.00021772
Ti       0.25371465       3.38886775      11.28140687        0      -0.00009274      -0.00071340      -0.00193503
O       -1.25637903       4.22555481      12.23008024        3      -0.00120139      -0.00135936      -0.23596352
O        0.25596403       3.38994045       7.75624279        1       0.00205865       0.00125709       0.00050481
C       -2.77795348       5.10609073       9.93412351        2      -0.00108615      -0.00101904       0.00275843
Ti      -2.77806636       6.87373519       8.73686477        0       0.00289424      -0.00116064      -0.00298790
Ti      -1.24214129       5.98459971      11.30665919        0       0.00396546      -0.00001833      -0.00177158
O       -2.77845855       6.60795197      12.23008024        3       0.00361311       0.00117648      -0.82095459
O       -1.26517751       6.03205006       7.79462861        1      -0.00010973       0.00050438       0.00020062
C       -4.28143561       7.76806159      10.04783343        2      -0.00131784      -0.00031278      -0.00172401
Ti      -4.30440790       9.51673414       8.73717094        0      -0.00047249       0.00121138      -0.00354464
Ti      -2.77800385       8.63617745      11.36507403        0      -0.00096458       0.00078493       0.00096579
O       -4.53562402       9.65034051      12.23008024        3       0.00289306      -0.00299023      -0.82396516
O       -2.77815578       8.63598532       7.84273353        1       0.00045698      -0.00116569      -0.00221431
C        3.28193828      -0.12447096      10.04792516        2      -0.00032526       0.00109235      -0.00207008
Ti       3.28177289       1.64485419       8.71768446        0       0.00035859       0.00148980      -0.00257714
Ti       4.81005608       0.79545854      11.30600923        0      -0.00228047       0.00455329      -0.00146659
O        3.28172697       1.66063759      12.23008024        3       0.00167540       0.00130733      -0.17592673
O        4.78027407       0.75087078       7.79392368        1       0.00208619       0.00339800       0.00271417
C        1.76123283       2.52245896       9.96484767        2       0.00011268       0.00197846       0.00039206
Ti       1.76236180       4.25892096       8.68562024        0      -0.00220364      -0.00136683       0.00100091
Ti       3.28260111       3.40841864      11.27463158        0      -0.00129117       0.00398333       0.00240891
O        1.76731554       4.26165251      12.23008024        3      -0.00379790       0.00086198      -0.17566593
O        3.28230178       3.37822018       7.77101292        1      -0.00229014       0.00131788       0.00170639
C        0.25775888       5.12709582       9.96518700        2       0.00024689      -0.00029006      -0.00017863
Ti       0.25863507       6.88240201       8.71827770        0      -0.00167515       0.00065335      -0.00429436
Ti       1.78592050       6.00057329      11.27445541        0       0.00016178       0.00011377       0.00323882
O        0.27193656       6.87487187      12.23008024        3      -0.00016902      -0.00000542      -0.17441775
O        1.75956746       6.01563304       7.77150279        1      -0.00044507       0.00069127      -0.00164558
C       -1.27441164       7.76777089      10.04811649        2      -0.00101700       0.00087370      -0.00155999
Ti      -1.25182654       9.51668455       8.73676566        0       0.00188699      -0.00026900      -0.00299525
Ti       0.28639752       8.63095155      11.30673721        0       0.00195871      -0.00403266      -0.00284588
O       -1.02062755       9.65058495      12.23008024        3      -0.00115742      -0.00505756      -0.82298425
O        0.23335021       8.62716133       7.79453088        1      -0.00035496       0.00065696       0.00041877
C        6.33909987      -0.09564805       9.93380080        2       0.00033592       0.00130156       0.00224418
Ti       6.31656325       1.63534838       8.68754178        0      -0.00128707      -0.00000973      -0.00078542
Ti       7.84181782       0.77227594      11.25815656        0       0.00479480       0.00208364      -0.00076749
O        6.34049944       1.66238450      12.23008024        3       0.00356036       0.00180975      -0.23759229
O        7.82478334       0.76215201       7.74398689        1      -0.00078420       0.00006879       0.00231011
C        4.80283606       2.52254500       9.96475245        2       0.00040238      -0.00125654      -0.00019772
Ti       4.80221430       4.25903902       8.68544479        0       0.00037431       0.00047429      -0.00001726
Ti       6.31082670       3.38839069      11.28120274        0      -0.00185923       0.00163932      -0.00251760
O        4.79814804       4.26172658      12.23008024        3      -0.00165461       0.00063276      -0.17640377
O        6.30819211       3.38987415       7.75592041        1      -0.00090688       0.00048237       0.00041127
C        3.28261146       5.13640297       9.97317814        2      -0.00235435       0.00190899       0.00070351
Ti       3.28222243       6.89171120       8.68541518        0       0.00126087       0.00294165       0.00105198
Ti       4.77929214       6.00082135      11.27445705        0      -0.00372452      -0.00151484       0.00218841
O        3.28268852       6.88622832      12.23008024        3      -0.00286540       0.00343597      -0.17600361
O        4.80506352       6.01581632       7.77089867        1      -0.00198294       0.00148557       0.00172052
C        1.77846465       7.76067332       9.96508748        2       0.00045322       0.00095392       0.00002643
Ti       1.76684316       9.51579993       8.68756586        0       0.00013312      -0.00067124      -0.00018768
Ti       3.28176600       8.63320383      11.28132215        0       0.00090385      -0.00006674      -0.00289051
O        1.80244317       9.52295291      12.23008024        3       0.00070683       0.00196074      -0.23636545
O        3.28184671       8.63078046       7.75607793        1       0.00034046      -0.00164464       0.00072005
C        9.34164526      -0.10739022       9.94489666        2      -0.00015135       0.00125398      -0.00077241
Ti       9.34164683       1.63863808       8.67264750        0      -0.00005450      -0.00056334      -0.00254631
Ti      10.84063235       0.77277121      11.25771785        0       0.00214500       0.00010992       0.00298063
O        9.34109030       1.63874054      12.23008024        3       0.00264670      -0.00174847      -0.24909866
O       10.85904260       0.76239976       7.74440715        1      -0.00045512      -0.00004304      -0.00040273
C        7.83033801       2.51117061       9.94466789        2      -0.00107482      -0.00037330      -0.00029643
Ti       7.83170066       4.26001164       8.68770335        0      -0.00053523       0.00009991      -0.00095136
Ti       9.34176317       3.37049047      11.25813467        0       0.00090733      -0.00434047       0.00033361
O        7.82029602       4.22588442      12.23008024        3       0.00013159      -0.00423928      -0.23721365
O        9.34209770       3.39053256       7.74416919        1      -0.00055955      -0.00017088       0.00120675
C        6.30656671       5.12724931       9.96468412        2       0.00070427      -0.00019566       0.00023518
Ti       6.30575241       6.88304584       8.71743870        0      -0.00094847      -0.00029823      -0.00137831
Ti       7.80579632       5.98470998      11.30597101        0      -0.00327979      -0.00015088      -0.00023067
O        6.29229823       6.87542343      12.23008024        3      -0.00078924      -0.00224793      -0.17486287
O        7.82957274       6.03265540       7.79413524        1      -0.00179271      -0.00392593       0.00029784
C        4.78572543       7.76098860       9.96462581        2      -0.00180998      -0.00020809       0.00148542
Ti       4.79640806       9.51615238       8.68789403        0       0.00310510      -0.00201826      -0.00141785
Ti       6.27659068       8.63135414      11.30648734        0       0.00503290      -0.00035565       0.00105612
O        4.76086525       9.52321820      12.23008024        3      -0.00047598       0.00103183      -0.23660750
O        6.33067614       8.62819001       7.79460335        1      -0.00303784      -0.00300526      -0.00072008
C       -0.34970982       0.24202514      15.11560003       10      -0.00741498      -0.00411195       0.09727636
C        0.85700737       0.94443681      15.10030798       10      -0.00064048      -0.00136005       0.09182436
C       -1.56371629       2.34233942      15.12092073       10       0.00091895       0.00122393       0.03062573
C       -0.35155161       3.04224769      15.10321030       10       0.00302903      -0.00110861       0.09242247
C       -2.77576598       4.44362750      15.11560003       10      -0.00184631       0.00109980       0.09702231
C       -1.56406450       5.13754330      15.10030798       10      -0.00098377       0.00065568       0.09189262
C       -3.98194071       6.54392998      15.05248928       10      -0.00220635       0.00024556       0.26363596
C       -2.77572094       7.21906376      15.01066706       10       0.00026701      -0.00055815      -0.42708059
C       -5.19409986       8.64339099      15.05248928       10      -0.00464764      -0.00012442       0.26374911
C       -4.00631478       9.35039883      15.01066706       10       0.00446892       0.00495269      -0.43186708
C        2.07226161       0.23644675      15.05248928       10      -0.00257696      -0.00185570       0.26372879
C        3.28436196       0.94186506      15.02041060       10      -0.00236324       0.00041248       0.05693852
C        0.86178951       2.34295434      15.08926501       10       0.00048750      -0.00430557       0.04493356
C        2.07278248       3.04139911      15.06735060       10      -0.00088457      -0.00017099       0.05270947
C       -0.35045874       4.44262037      15.08926501       10      -0.00249763       0.00025604       0.04446412
C        0.85998629       5.14205436      15.06735060       10      -0.00188338      -0.00004712       0.05291095
C       -1.56951649       6.54394630      15.05248928       10      -0.00056162      -0.00077818       0.26380398
C       -0.35257630       7.24097183      15.02041060       10       0.00034076       0.00001601       0.05716809
C       -2.77586078       8.63988919      14.55786140       10      -0.00062223       0.00019038       2.71305270
C       -1.54545853       9.35040838      15.01066706       10       0.00055534       0.00081138      -0.43727470
C        4.49641033       0.23645545      15.05248928       10      -0.00082010      -0.00227665       0.26336798
C        5.71166293       0.94437643      15.10030798       10      -0.00115653      -0.00116043       0.09110222
C        3.28425522       2.33841470      15.05274431       10       0.00007348       0.00102322       0.00599479
C        4.49565542       3.04142374      15.06735060       10       0.00050150      -0.00028059       0.05295981
C        2.07376314       4.44240113      15.06466899       10      -0.00067082       0.00125064      -0.03087488
C        3.28416371       5.14135443      15.05966822       10       0.00116275      -0.00161412       0.06347572
C        0.85689981       6.54270677      15.05274431       10       0.00015342      -0.00025609       0.00503440
C        2.07137896       7.24036339      15.06735060       10      -0.00045475       0.00055817       0.05287043
C       -0.35757241       8.64341969      15.05248928       10       0.00197593      -0.00051941       0.26374486
C        0.86315998       9.34186568      15.10030798       10      -0.00010136       0.00183417       0.09107522
C        6.91841778       0.24197038      15.11560003       10      -0.00018990      -0.00154375       0.09812311
C        8.13327777       0.94331873      15.12253855       10      -0.00044442       0.00034823       0.08632650
C        5.70663008       2.34284441      15.08926501       10      -0.00036078      -0.00109055       0.04491143
C        6.91987544       3.04219414      15.10321030       10      -0.00009321       0.00085274       0.09230059
C        4.49461007       4.44246370      15.06466899       10       0.00237041      -0.00091464      -0.03111872
C        5.70842708       5.14206547      15.06735060       10       0.00214722      -0.00052613       0.05318382
C        3.28420172       6.53906105      15.06466899       10       0.00025910       0.00007115      -0.03133817
C        4.49705450       7.24027913      15.06735060       10      -0.00007048       0.00290542       0.05290410
C        2.07180409       8.63835070      15.08926501       10       0.00092109       0.00088715       0.04462420
C        3.28414570       9.33931794      15.10321030       10       0.00135404       0.00313373       0.09187575
C        9.34436090       0.24288172      15.12092073       10      -0.00456811      -0.00371624       0.03012842
C       10.55530973       0.94333722      15.12253855       10       0.00346027       0.00028726       0.08637409
C        8.13204882       2.34234134      15.12092073       10      -0.00004183      -0.00010298       0.03044358
C        9.34413493       3.04092022      15.12253855       10       0.00246400      -0.00123791       0.08653218
C        6.91888492       4.44260500      15.08926501       10       0.00135900      -0.00018370       0.04398276
C        8.13250197       5.13758289      15.10030798       10       0.00178614      -0.00132387       0.09162546
C        5.71158970       6.54267632      15.05274431       10      -0.00146138       0.00033120       0.00457545
C        6.92106366       7.24096491      15.02041060       10      -0.00042035      -0.00100797       0.05706310
C        4.49644629       8.63830655      15.08926501       10       0.00099064       0.00057833       0.04413882
C        5.70508121       9.34182605      15.10030798       10       0.00656793       0.00413721       0.09130090
O       -2.77737220       8.63762685      13.21952577       11      -0.00076560       0.00100021       0.00007642
