131
Lattice="12.12 0.0 0.0 -6.06 10.496227893867395 0.0 0.0 0.0 40.0" Properties=species:S:1:pos:R:3:tags:I:1:forces:R:3 stress="0.0027434861810738233 2.300262613201528e-07 -1.6861978666131167e-06 2.300262613201528e-07 0.002742902612761089 -4.868959496281332e-06 -1.6861978666131167e-06 -4.868959496281332e-06 0.0030263653704105465" energy=-1203.5833756261816 pbc="T T F"
C        0.23107729      -0.07592534       9.93656580        2       0.00125173      -0.00038184       0.00172483
Ti       0.25591650       1.65420346       8.67886406        0       0.00163433       0.00035283       0.00560035
Ti       1.76549624       0.81495781      11.29367801        0      -0.00458367       0.00371875      -0.00474692
O        0.22776143       1.67695686      12.23008024        3       0.00386548      -0.00101861      -0.26462558
O        1.79167953       0.76454095       7.79630596        1       0.00265861       0.00193899      -0.00250437
C       -1.25940402       2.53012211       9.93939588        2       0.00181291      -0.00035387       0.00408012
Ti      -1.25998445       4.28213997       8.67959396        0       0.00129834      -0.00087104       0.00322617
Ti       0.25395646       3.40280060      11.27988137        0      -0.00214324       0.00236483       0.00238069
O       -1.25424212       4.24416927      12.23008024        3       0.00147035      -0.00259032      -0.26331161
O        0.26154509       3.40825111       7.75229372        1      -0.00147691      -0.00094075       0.00093581
C       -2.77080931       5.12406860       9.93504788        2      -0.00138364      -0.00426400       0.00383426
Ti      -2.77006006       6.89725417       8.75607892        0      -0.00474498      -0.00412171       0.00551356
Ti      -1.23208351       6.00654942      11.29440476        0       0.00403618      -0.00120357      -0.00201619
O       -2.77075429       6.65522813      12.23008024        3      -0.00406705       0.00211898      -0.60249831
O       -1.26165971       6.05691654       7.79758429        1       0.00075343      -0.00241174      -0.00675059
C       -4.26553156       7.79187654      10.06531294        2       0.00221563       0.00086630       0.00415539
Ti      -4.29389201       9.53459020       8.75494134        0       0.00239823      -0.00278633       0.00774845
Ti      -2.77362724       8.64966294      11.55937905        0       0.00434294      -0.00396310      -0.00262066
O       -4.49400443       9.65114645      12.23008024        3      -0.00109594       0.00171832      -0.58140002
O       -2.77176512       8.65459180       7.86178169        1      -0.00076613      -0.00170194       0.00308510
C        3.28762677      -0.11673079      10.06296593        2      -0.00023184      -0.00196723       0.00602977
Ti       3.28856505       1.66199840       8.71552620        0      -0.00016184       0.00410460       0.00266467
Ti       4.81083328       0.81372088      11.29448320        0       0.00385576      -0.00291504      -0.00327427
O        3.28831823       1.68482124      12.23008024        3      -0.00009438       0.00115817      -0.13337978
O        4.78481323       0.76308022       7.79710495        1      -0.00130891       0.00439483      -0.00372084
C        1.76787545       2.54222770       9.95865432        2       0.00069184      -0.00170594       0.00450367
Ti       1.77019038       4.27766429       8.68345747        0      -0.00042871       0.00327737       0.00469294
Ti       3.28962046       3.42306957      11.28878726        0      -0.00345431       0.00206487      -0.00352920
O        1.77203592       4.27928254      12.23008024        3       0.00020912       0.00071808      -0.18274365
O        3.28944877       3.39014524       7.77163992        1      -0.00105039       0.00548318      -0.00170821
C        0.26548702       5.14613888       9.95882545        2       0.00008940      -0.00400722       0.00150868
Ti       0.26617063       6.90133787       8.71517693        0      -0.00037166      -0.00104601       0.00812709
Ti       1.78946798       6.02195369      11.28925258        0      -0.00075096       0.00023879      -0.00201678
O        0.28285173       6.89077579      12.23008024        3       0.00048679      -0.00051265      -0.14049717
O        1.76169898       6.03816246       7.77186444        1       0.00012906      -0.00070098      -0.00158202
C       -1.27877646       7.79158566      10.06612069        2       0.00003824      -0.00053368      -0.00377061
Ti      -1.24987165       9.53253788       8.75570878        0       0.00118994       0.00483242       0.00542037
Ti       0.28712135       8.64716393      11.29606163        0       0.00453605      -0.00503362      -0.00292145
O       -1.05294909       9.64815631      12.23008024        3       0.00007737       0.00390991      -0.57108800
O        0.23314896       8.64687960       7.79835329        1       0.00157855      -0.00102311      -0.00705432
C        6.34446213      -0.07750395       9.93787793        2       0.00166388       0.00262230       0.00505873
Ti       6.31922551       1.65381532       8.67995446        0      -0.00049550       0.00112511       0.00135551
Ti       7.84224981       0.78725977      11.27151789        0       0.00008742      -0.00148629       0.00027391
O        6.34838973       1.67595303      12.23008024        3      -0.00100102       0.00044686      -0.26336132
O        7.82919033       0.77992985       7.74571278        1       0.00158022      -0.00063317      -0.00261056
C        4.80986682       2.54127691       9.95866308        2      -0.00074195       0.00173377       0.00612423
Ti       4.80859341       4.27877565       8.68359054        0      -0.00034987      -0.00053931       0.00336648
Ti       6.32481344       3.40199220      11.27905588        0       0.00115039       0.00141352       0.00216248
O        4.80715110       4.27921561      12.23008024        3      -0.00523337       0.00096105      -0.18561982
O        6.31666045       3.40753645       7.75245102        1      -0.00090749      -0.00033688       0.00199225
C        3.28991808       5.15556513       9.96518264        2      -0.00198740      -0.00010010       0.00379147
Ti       3.29032022       6.91089541       8.68495306        0      -0.00415319      -0.00207571       0.00442728
Ti       4.78848603       6.02142308      11.28939656        0      -0.00076729       0.00182919      -0.00173310
O        3.28942413       6.90849056      12.23008024        3      -0.00203447      -0.00236110      -0.18889349
O        4.81800111       6.03867041       7.77167429        1      -0.00544283      -0.00262157      -0.00212069
C        1.78511904       7.77983421       9.95923548        2       0.00188789       0.00079220       0.00119183
Ti       1.77100045       9.53180860       8.68069626        0      -0.00038410      -0.00256699       0.00267251
Ti       3.28878092       8.66233705      11.27883645        0      -0.00429792      -0.00112632       0.00152916
O        1.80473173       9.54612708      12.23008024        3       0.00169683      -0.00064754      -0.26622345
O        3.28841124       8.65232425       7.75294587        1      -0.00071917       0.00104537       0.00030949
C        9.34803187      -0.08852666       9.94071119        2       0.00018535      -0.00192412       0.00290313
Ti       9.34695943       1.65822433       8.67384558        0       0.00568405      -0.00414172       0.00430038
Ti      10.85325824       0.78840670      11.27125699        0       0.00470194      -0.00312997      -0.00035467
O        9.34797562       1.65733085      12.23008024        3       0.00067110      -0.00172676      -0.31569780
O       10.86583827       0.78106040       7.74425851        1       0.00270874      -0.00226317       0.00472556
C        7.83646466       2.52957924       9.93999764        2      -0.00275067       0.00066050       0.00302705
Ti       7.83740063       4.28330677       8.67950613        0      -0.00228981      -0.00295347       0.00191200
Ti       9.34890678       3.39469002      11.27166706        0      -0.00115616       0.00077421       0.00088106
O        7.83221977       4.24413860      12.23008024        3      -0.00206540      -0.00102873      -0.26598644
O        9.34854500       3.41123928       7.74480922        1       0.00038408      -0.00287509      -0.00179725
C        6.31362597       5.14607145       9.95804828        2      -0.00309209      -0.00247879       0.00569872
Ti       6.31397863       6.90310675       8.71574372        0      -0.00159350      -0.00235790       0.00484843
Ti       7.81001433       6.00704790      11.29501774        0       0.00237855      -0.00288604      -0.00049174
O        6.29509196       6.89159024      12.23008024        3      -0.00317318      -0.00224918      -0.14362847
O        7.84080109       6.05740717       7.79708932        1      -0.00501893      -0.00324415      -0.00371988
C        4.79233125       7.78069973       9.95847390        2       0.00089478      -0.00161530       0.00384402
Ti       4.80578467       9.53290536       8.67943323        0      -0.00026158      -0.00247027       0.00582429
Ti       6.28917599       8.64781558      11.29584724        0      -0.00655486      -0.00290051      -0.00420753
O        4.77134343       9.54714160      12.23008024        3       0.00219748      -0.00312575      -0.26776568
O        6.34370862       8.64823068       7.79696983        1      -0.00106155      -0.00439452      -0.00232863
C       -0.36066292       0.21220868      15.36175388       10      -0.00409482       0.00034537       0.07199631
C        0.84692360       0.91426200      15.34646183       10      -0.00229134       0.00318221       0.06553329
C       -1.57391318       2.31284098      15.36707458       10      -0.00018776       0.00182970       0.07806359
C       -0.36174557       3.01258291      15.34936415       10       0.00050191       0.00140586       0.08778152
C       -2.78648168       4.41378731      15.36175388       10       0.00029281       0.00010765       0.07651550
C       -1.57467362       5.10846652      15.34646183       10       0.00142503      -0.00119230       0.06394674
C       -3.99286984       6.51435047      15.29864313       10      -0.00065965       0.00072017       0.20088972
C       -2.78659321       7.19113017      15.25682091       10       0.00151933      -0.00069423      -0.41313990
C       -5.20499052       8.61326480      15.29864313       10      -0.00039985       0.00226741       0.20546376
C       -4.01666999       9.31991610      15.25682091       10       0.00333474       0.00272637      -0.37261375
C        2.06169533       0.20682683      15.29864313       10      -0.00284100       0.00030613       0.20303983
C        3.27376386       0.91353090      15.26656445       10      -0.00216866       0.00017121       0.01478487
C        0.85082803       2.31319976      15.33541886       10       0.00006729       0.00261577       0.07186766
C        2.06173443       3.01208442      15.31350445       10       0.00084618       0.00227707       0.08502152
C       -0.36106316       4.41225068      15.33541886       10       0.00102019       0.00032158       0.07711829
C        0.84981688       5.11122948      15.31350445       10       0.00043560       0.00097082       0.08517441
C       -1.58002206       6.51444481      15.29864313       10       0.00072205      -0.00153812       0.19988534
C       -0.36176430       7.21028146      15.26656445       10      -0.00016966       0.00149199       0.01328943
C       -2.78615409       8.61129476      14.80401525       10       0.00200209       0.00014939       1.87413240
C       -1.55581516       9.32031282      15.25682091       10       0.00057265       0.00199158      -0.35344507
C        4.48590824       0.20694747      15.29864313       10      -0.00028929       0.00059067       0.20546514
C        5.70058104       0.91448759      15.34646183       10       0.00080015       0.00122459       0.06540373
C        3.27348788       2.30951990      15.29889816       10       0.00027726       0.00043415       0.01737147
C        4.48516000       3.01220567      15.31350445       10       0.00060608       0.00052428       0.08255526
C        2.06285680       4.41213508      15.31082284       10       0.00073390       0.00206413       0.04061408
C        3.27336524       5.11094675      15.30582207       10       0.00030220       0.00032817       0.12116431
C        0.84701986       6.51197713      15.29889816       10      -0.00030381       0.00080665       0.02111460
C        2.06154352       7.20995146      15.31350445       10      -0.00000193       0.00002421       0.07920382
C       -0.36773081       8.61337105      15.29864313       10       0.00103307       0.00208336       0.20706373
C        0.85254078       9.31165017      15.34646183       10       0.00176964       0.00190609       0.06428093
C        6.90817321       0.21234257      15.36175388       10       0.00144480       0.00036198       0.07047261
C        8.12284379       0.91363953      15.36869240       10       0.00073732       0.00161987       0.07276578
C        5.69620234       2.31335424      15.33541886       10       0.00154477       0.00143248       0.06979868
C        6.90878153       3.01266783      15.34936415       10       0.00206187       0.00115739       0.08797043
C        4.48393265       4.41229799      15.31082284       10       0.00009741       0.00032392       0.04118944
C        5.69708594       5.11129246      15.31350445       10       0.00043010       0.00055029       0.08318746
C        3.27351554       6.50868830      15.31082284       10      -0.00038148      -0.00019703       0.04186655
C        4.48554197       7.20987831      15.31350445       10      -0.00124601       0.00138117       0.07971746
C        2.06176790       8.60832683      15.33541886       10       0.00165207       0.00038737       0.07035940
C        3.27363763       9.30885453      15.34936415       10       0.00032940       0.00333217       0.08793782
C        9.33377238       0.21262969      15.36707458       10      -0.00165907       0.00041093       0.08338112
C       10.54460053       0.91358259      15.36869240       10       0.00049585       0.00145469       0.07214315
C        8.12110020       2.31291428      15.36707458       10       0.00147838       0.00060475       0.07966423
C        9.33354418       3.01114438      15.36869240       10       0.00189982      -0.00052798       0.07078756
C        6.90797493       4.41227649      15.33541886       10       0.00086874       0.00042869       0.07799343
C        8.12162500       5.10834722      15.34646183       10       0.00174230      -0.00058125       0.06316547
C        5.70010865       6.51202636      15.29889816       10      -0.00077650       0.00144828       0.02332632
C        6.90890275       7.21022246      15.26656445       10       0.00064760       0.00123631       0.01289588
C        4.48537727       8.60824130      15.33541886       10      -0.00068457       0.00101810       0.07321680
C        5.69465059       9.31154639      15.34646183       10       0.00174004       0.00265606       0.06351274
O       -2.77875792       8.63312254      13.44020295       11      -0.00012232       0.00370926      -0.00804569
