132
Lattice="12.12 0.0 0.0 -6.06 10.496227893867395 0.0 0.0 0.0 40.0" Properties=species:S:1:pos:R:3:tags:I:1:forces:R:3 stress="0.0028517751169243113 9.15744746276957e-07 3.870547471498799e-06 9.15744746276957e-07 0.00284504944471991 -1.783224552655176e-07 3.870547471498799e-06 -1.783224552655176e-07 0.002211894540076892" energy=-1209.7972282560465 pbc="T T F"
C        0.00323372       0.01488003      10.00318825        2       0.00101230       0.00062906      -0.00182107
Ti       0.00234521       1.76557687       8.71605306        0      -0.00155971       0.00113395      -0.00095531
Ti       1.51932918       0.88958259      11.29196539        0      -0.00335125       0.00295853       0.00193244
O        0.00424253       1.76263422      12.23008024        3      -0.00374435       0.00318137       0.09473754
O        1.51512039       0.89167584       7.77359559        1      -0.00042545       0.00091446       0.00048089
C       -1.51309622       2.64101699      10.01282097        2      -0.00149287      -0.00068592      -0.00728457
Ti      -1.51355231       4.39010456       8.72134512        0       0.00167918      -0.00182747      -0.00781451
Ti       0.00136520       3.51388387      11.30395812        0      -0.00211692      -0.00084216      -0.00059754
O       -1.51001907       4.39442775      12.23008024        3      -0.00061387      -0.00445390       0.08663309
O       -0.00035722       3.51516338       7.77913177        1       0.00079877      -0.00147585      -0.00217665
C       -3.02816281       5.26546158      10.01022777        2       0.00084102      -0.00146662      -0.00692333
Ti      -3.02816625       7.01386267       8.71460004        0      -0.00100942       0.00002674      -0.00186604
Ti      -1.51275295       6.14068629      11.29756094        0      -0.00126177      -0.00472298      -0.00316711
O       -3.02954109       7.01652453      12.23008024        3       0.00263604      -0.00371262       0.12292438
O       -1.51353936       6.13708449       7.77785338        1      -0.00009074      -0.00118267      -0.00479644
C       -4.54368713       7.88892820      10.00252141        2       0.00252797       0.00061080      -0.00157780
Ti      -4.54361028       9.63718977       8.71172297        0       0.00112743       0.00032828       0.00055776
Ti      -3.02776340       8.76371027      11.29210486        0       0.00025931      -0.00143188       0.00523377
O       -4.54342353       9.63700439      12.23008024        3       0.00189109       0.00215202       0.09154556
O       -3.02824121       8.76134429       7.77264899        1       0.00028775       0.00407863      -0.00077232
C        3.03224950       0.01557830      10.00170316        2       0.00057695       0.00105893      -0.00043449
Ti       3.03166838       1.76519467       8.71229560        0       0.00112730       0.00262689       0.00129490
Ti       4.54714785       0.89064757      11.29184808        0       0.00005038       0.00186754       0.00572850
O        3.03323599       1.76522849      12.23008024        3      -0.00222664       0.00087767       0.12970092
O        4.54787435       0.89123808       7.77277367        1      -0.00190248       0.00167315       0.00071249
C        1.51753067       2.63946610      10.00538553        2       0.00015332       0.00101840      -0.00349428
Ti       1.51628648       4.38922600       8.71572145        0      -0.00007452       0.00101586      -0.00440381
Ti       3.03229460       3.51412223      11.29281460        0      -0.00269564       0.00092424       0.00317591
O        1.52199816       4.39126199      12.23008024        3      -0.00573279      -0.00078103       0.12802938
O        3.03051960       3.51483341       7.77381680        1       0.00321759       0.00070155       0.00062325
C        0.00227491       5.26471892      10.00760823        2      -0.00082131      -0.00009615      -0.00675678
Ti       0.00171085       7.01360468       8.71490225        0       0.00078426      -0.00050204      -0.00420714
Ti       1.51786243       6.13919470      11.29330079        0      -0.00455986      -0.00027036       0.00410580
O        0.00428771       7.01587507      12.23008024        3      -0.00261694      -0.00155110       0.10749239
O        1.51554702       6.13801920       7.77468267        1       0.00267092       0.00239399      -0.00073665
C       -1.51300746       7.89009841      10.00353902        2      -0.00062961      -0.00029955      -0.00466607
Ti      -1.51335119       9.63719231       8.71156073        0       0.00008825       0.00122309       0.00245740
Ti       0.00208216       8.76384286      11.29272117        0       0.00221618      -0.00171737       0.00151970
O       -1.51310362       9.63816285      12.23008024        3       0.00144940      -0.00092957       0.11324810
O        0.00221377       8.76257201       7.77355573        1       0.00181752      -0.00039674      -0.00166192
C        6.06099136       0.01550647      10.00302134        2      -0.00004876       0.00053593      -0.00287226
Ti       6.06136698       1.76521888       8.71387330        0       0.00061579       0.00169854      -0.00130046
Ti       7.57509444       0.89001349      11.29230563        0       0.00089584      -0.00062134       0.00041617
O        6.06011432       1.76511826      12.23008024        3       0.00312835      -0.00031178       0.11153068
O        7.57864489       0.89281172       7.77701616        1       0.00103622      -0.00052107      -0.00196401
C        4.54646749       2.63962495      10.00254505        2       0.00093240       0.00012210       0.00033882
Ti       4.54661345       4.38900166       8.71276456        0       0.00209630       0.00126406       0.00072050
Ti       6.06225086       3.51393538      11.29520457        0       0.00404779       0.00118601       0.00432247
O        4.54621250       4.38992729      12.23008024        3      -0.00049219       0.00194114       0.11315816
O        6.06390860       3.51483712       7.77595321        1      -0.00093993       0.00042918      -0.00044527
C        3.03208760       5.26405794      10.00278661        2      -0.00104667      -0.00014459      -0.00069197
Ti       3.03145322       7.01367413       8.71219645        0      -0.00006489       0.00064987      -0.00053900
Ti       4.54675399       6.13835796      11.29299198        0       0.00030645       0.00205963       0.00184113
O        3.03331726       7.01327504      12.23008024        3      -0.00228965      -0.00025081       0.11478272
O        4.54658098       6.13848458       7.77254634        1       0.00086601       0.00084384       0.00208532
C        1.51710872       7.88869870      10.00296539        2      -0.00090668       0.00044432      -0.00096182
Ti       1.51637222       9.63828959       8.71320500        0       0.00187163      -0.00232719      -0.00081091
Ti       3.03215898       8.76340329      11.29227103        0       0.00092162       0.00215244       0.00512294
O        1.51771426       9.63760373      12.23008024        3       0.00173773       0.00062784       0.12160852
O        3.03144132       8.76407419       7.77333269        1       0.00202805      -0.00149451       0.00199229
C        9.09181053       0.01617894      10.00604839        2      -0.00019957      -0.00023396      -0.00396904
Ti       9.09160798       1.76672525       8.72216144        0       0.00216098      -0.00114438      -0.00543379
Ti      10.61088570       0.88915735      11.29313559        0       0.00227450       0.00020146      -0.00068614
O        9.09385155       1.76193696      12.23008024        3       0.00418683       0.00003521       0.27318679
O       10.60559884       0.89313395       7.77776811        1       0.00229443      -0.00156573      -0.00070704
C        7.57732030       2.64043627      10.01031639        2       0.00142467      -0.00143725      -0.00456309
Ti       7.57691693       4.38963072       8.71858764        0       0.00195428      -0.00119686      -0.00633911
Ti       9.09295908       3.51868437      11.31586999        0       0.00102431      -0.00111423      -0.00263881
O        7.57049832       4.39305260      12.23008024        3       0.00475525      -0.00181337       0.09929051
O        9.09260317       3.51516849       7.78219819        1       0.00016808      -0.00141312      -0.00520120
C        6.06123266       5.26438448      10.00355755        2       0.00198375       0.00016350      -0.00144609
Ti       6.06131437       7.01313621       8.71226157        0       0.00228265       0.00059355       0.00066215
Ti       7.57645905       6.14061431      11.29379848        0       0.00183668      -0.00357023       0.00318565
O        6.06034176       7.01378853      12.23008024        3       0.00025648       0.00122321       0.12345160
O        7.57784675       6.13740539       7.77581835        1      -0.00103517       0.00032128      -0.00194965
C        4.54663998       7.88818774      10.00218899        2       0.00183228       0.00128374       0.00076530
Ti       4.54660989       9.63817002       8.71261072        0       0.00003521      -0.00025186      -0.00022105
Ti       6.06213259       8.76205298      11.29158647        0       0.00148370       0.00319220       0.00456411
O        4.54710472       9.63496962      12.23008024        3       0.00122719       0.00302239       0.10849382
O        6.06079668       8.76300382       7.77230531        1       0.00253440       0.00069301       0.00252084
C        0.05414804       0.05143713      17.11548508       10      -0.00655736       0.00027606      -0.00248544
C        1.26336470       0.75346413      17.12387331       10      -0.00401955       0.00216405       0.00183697
C       -1.14410419       2.14125222      17.09111441       10      -0.00511356      -0.00181776       0.21621178
C        0.04949372       2.85134254      17.09875315       10      -0.00042422       0.00316211       0.01986147
C       -2.37621573       4.27852610      17.09110886       10      -0.00099276      -0.00412972       0.46354020
C       -1.16540358       4.95695339      17.09875059       10       0.00137941      -0.00048737       0.01426816
C       -3.58810339       6.35996223      17.11548453       10      -0.00289098       0.00185144      -0.03069090
C       -2.37568967       7.05618190      17.12387311       10       0.00000753       0.00189123      -0.00385261
C       -4.79860897       8.45265795      17.11359214       10      -0.00619535       0.00044509      -0.01894509
C       -3.58692225       9.15227317      17.12488180       10      -0.00124830       0.00026681      -0.04217223
C        2.47434867       0.05459547      17.12590682       10      -0.00740370      -0.00002052      -0.03317415
C        3.68450399       0.75539791      17.12488171       10       0.00115287      -0.00428377      -0.03223001
C        1.26517915       2.15195100      17.11548529       10       0.00025010      -0.00000349      -0.01572015
C        2.47316565       2.85436816      17.10642516       10       0.00249340      -0.00174516      -0.03759819
C        0.04779514       4.25316142      17.07262527       10       0.00058429       0.00146271       0.14867131
C        1.25861980       4.95248231      17.08429522       10      -0.00247308      -0.00198550      -0.08055796
C       -1.16365323       6.35947858      17.11548453       10       0.00505287       0.00334945      -0.04326741
C        0.04842837       7.05371702      17.10642526       10       0.00145203       0.00399213      -0.04881823
C       -2.37530378       8.45405469      17.12590703       10      -0.00349364      -0.00007317      -0.02374459
C       -1.16354725       9.15217046      17.12488180       10      -0.00108634      -0.00031482      -0.03096282
C        4.89484098       0.05458562      17.12590682       10      -0.00158231       0.00062564      -0.02773293
C        6.10551580       0.75378280      17.12387331       10      -0.00221892      -0.00332863      -0.01200837
C        3.68397111       2.15455213      17.11359201       10       0.00361933      -0.00189579      -0.02058423
C        4.89479693       2.85460095      17.10642516       10       0.00490328      -0.00328995      -0.04463661
C        2.47240400       4.25373317      17.09254166       10       0.00110058      -0.00030769      -0.04086187
C        3.68431130       4.95354171      17.08975380       10       0.00047613      -0.00283513      -0.02666937
C        1.25944727       6.35281355      17.09254156       10       0.00448591       0.00226483      -0.05114149
C        2.47171119       7.05225165      17.08975369       10       0.00202472       0.00093910      -0.02185458
C        0.04777002       8.45205427      17.11359214       10       0.00356009       0.00427422      -0.02126223
C        1.25931920       9.15052746      17.10642501       10      -0.00093604       0.00235656      -0.03480298
C        7.31476777       0.05138330      17.11548508       10       0.00123443       0.00327728       0.00638047
C        8.52851643       0.75361362      17.09875296       10      -0.00308854      -0.00285805       0.00944962
C        6.10274835       2.15239733      17.11548529       10       0.00279330      -0.00134003      -0.01680770
C        7.31862013       2.85173593      17.09875315       10      -0.00279566      -0.00030631       0.01869401
C        4.89627338       4.25395244      17.09254166       10      -0.00012870      -0.00171998      -0.05058025
C        6.11032352       4.95260999      17.08429522       10      -0.00112046      -0.00262725      -0.07908902
C        3.68427006       6.35294649      17.08667580       10       0.00194362      -0.00127318      -0.04846333
C        4.89679931       7.05245052      17.08975369       10      -0.00191543      -0.00012870      -0.01465322
C        2.47193972       8.45182583      17.09254139       10      -0.00064766       0.00185407      -0.03542565
C        3.68453033       9.15296483      17.08429481       10      -0.00337246       0.00099741      -0.06986400
C        9.74449785       0.05489063      17.07262522       10      -0.00136193       0.00322761       0.13540824
C       10.96010144       0.75349605      17.09875296       10      -0.00160632       0.00279807       0.00361357
C        8.51123556       2.14155888      17.09111441       10      -0.00243779      -0.00452146       0.26558731
C        9.74265144       2.85160264      16.84675515       10      -0.00045389      -0.00219957      -2.10167220
C        7.32122599       4.25366923      17.07262527       10       0.00132665       0.00054512       0.11918970
C        8.53390736       4.95740769      17.09875059       10       0.00196271      -0.00298336       0.00785425
C        6.10899955       6.35320271      17.09254156       10      -0.00155349       0.00088105      -0.04988732
C        7.32006686       7.05448215      17.10642526       10      -0.00154248      -0.00292930      -0.03338597
C        4.89727005       8.45202226      17.09254139       10      -0.00220047       0.00122265      -0.03983022
C        6.10983868       9.15084436      17.10642501       10      -0.00494474      -0.00025575      -0.03270890
O        9.75945852       2.93838180      15.26439099       11      -0.00375511      -0.00883741      -0.00069323
H        9.59814487       2.06169407      14.86762426       12       0.00029485       0.00605284       0.00094829
